version 3
run General-0-20230709-21:30:42-13847
attr configname General
attr datetime 20230709-21:30:42
attr datetimef 20230709-213042
attr experiment General
attr inifile omnetpp.ini
attr iterationvars ""
attr iterationvarsd ""
attr iterationvarsf ""
attr measurement ""
attr network myHospitalNetwork
attr processid 13847
attr repetition 0
attr replication #0
attr resultdir results
attr runnumber 0
attr seedset 0
config image-path ../../../../../Documents/inet/images:../../../../../Documents/veins/images
config cmdenv-express-mode true
config cmdenv-autoflush true
config cmdenv-status-frequency 0.1s
config **.cmdenv-log-level info
config ned-path .
config image-path ../../images
config network myHospitalNetwork
config debug-on-errors true
config print-undisposed false
config sim-time-limit 3600s
config **.scalar-recording true
config **.vector-recording true
config *.playgroundSizeX 2500m
config *.playgroundSizeY 2500m
config *.playgroundSizeZ 50m
config *.annotations.draw true
config *.manager.updateInterval 0.1s
config *.manager.host "\"localhost\""
config *.manager.port 9999
config *.manager.autoShutdown true
config *.manager.launchConfig "xmldoc(\"vd013.launchd.xml\")"
config *.manager.moduleType "\"agv=org.car2x.veins.nodes.Car pedestrian=lab001.veins_inet.IPerson\""
config *.manager.moduleName "\"agv=node pedestrian=personNode\""
config *.manager.moduleDisplayString "\"agv='i=veins/node/car;is=vs' pedestrian='i=veins/node/pedestrian;is=vs'\""
config *.rsu[0].mobility.x 300
config *.rsu[0].mobility.y 300
config *.rsu[0].mobility.z 3
config *.rsu[*].applType "\"HospitalControlApp\""
config *.rsu[*].appl.headerLength "80 bit"
config *.rsu[*].appl.sendBeacons false
config *.rsu[*].appl.dataOnSch false
config *.rsu[*].nic.phy80211p.antennaOffsetZ "0 m"
config *.connectionManager.sendDirect true
config *.connectionManager.maxInterfDist 2600m
config *.connectionManager.drawMaxIntfDist false
config *.**.nic.mac1609_4.useServiceChannel true
config *.**.nic.mac1609_4.txPower 20mW
config *.**.nic.mac1609_4.bitrate 6Mbps
config *.**.nic.phy80211p.minPowerLevel -110dBm
config *.**.nic.phy80211p.useNoiseFloor true
config *.**.nic.phy80211p.noiseFloor -98dBm
config *.**.nic.phy80211p.decider "xmldoc(\"config.xml\")"
config *.**.nic.phy80211p.analogueModels "xmldoc(\"config.xml\")"
config *.**.nic.phy80211p.usePropagationDelay true
config *.**.nic.phy80211p.antenna "xmldoc(\"antenna.xml\", \"/root/Antenna[@id='monopole']\")"
config *.node[*].nic.phy80211p.antennaOffsetY "0 m"
config *.node[*].nic.phy80211p.antennaOffsetZ "1.895 m"
config *.node[*].applType "\"AGVControlApp\""
config *.node[*].appl.headerLength "80 bit"
config *.node[*].appl.sendBeacons false
config *.node[*].appl.dataOnSch true
config *.node[*].appl.beaconInterval 0.1s
config *.node[*].veinsmobility.x 0
config *.node[*].veinsmobility.y 0
config *.node[*].veinsmobility.z 0
config *.node[*].veinsmobility.setHostSpeed false
config *.node[*0].veinsmobility.accidentCount 0

vector 0 myHospitalNetwork.node[0].veinsmobility posx ETV
vector 1 myHospitalNetwork.node[0].veinsmobility posy ETV
vector 2 myHospitalNetwork.node[0].veinsmobility speed ETV
vector 3 myHospitalNetwork.node[0].veinsmobility acceleration ETV
vector 4 myHospitalNetwork.node[0].veinsmobility co2emission ETV
vector 5 myHospitalNetwork.node[1].veinsmobility posx ETV
vector 6 myHospitalNetwork.node[1].veinsmobility posy ETV
vector 7 myHospitalNetwork.node[1].veinsmobility speed ETV
vector 8 myHospitalNetwork.node[1].veinsmobility acceleration ETV
vector 9 myHospitalNetwork.node[1].veinsmobility co2emission ETV
0	3	0.1	548.755
0	8	0.2	548.61
0	70	0.3	548.365
0	132	0.4	548.02
0	194	0.5	547.575
0	256	0.6	547.03
0	314	0.7	546.385
0	376	0.8	545.64
0	434	0.9	544.795
0	515	1	543.85
0	647	1.1	542.805
0	817	1.2	541.66
0	981	1.3	540.415
0	1151	1.4	539.07
0	1321	1.5	537.625
0	1465	1.6	536.08978372
0	1608	1.7	534.53924302
0	1752	1.8	532.98870232
0	1915	1.9	531.44111144052
0	2085	2	529.9653198431
0	2255	2.1	528.58952824568
0	2425	2.2	527.31373664826
0	2595	2.3	526.13794505084
0	2765	2.4	525.06215345342
0	2914	2.5	524.084361856
0	3044	2.6	523.07857025858
0	3174	2.7	522.03388921016
0	3304	2.8	521.08448579899
0	3455	2.9	520.23508238782
0	3625	3	519.48414396444
0	3795	3.1	518.76462384592
0	3945	3.2	518.0451037274
0	4088	3.3	517.32558360888
0	4238	3.4	516.69222305768
0	4388	3.5	516.06897569457
0	4538	3.6	515.46743699887
0	4688	3.7	515.093488581
0	4838	3.8	514.71954016314
0	4987	3.9	514.42130091584
0	5110	4	514.31851232748
0	5240	4.1	514.21572373912
0	5370	4.2	514.11293515076
0	5500	4.3	514.1
0	5624	4.4	514.1
0	5794	4.5	514.1
0	5957	4.6	514.1
0	6127	4.7	514.1
0	6289	4.8	514.1
0	6439	4.9	514.1
0	6589	5	514.1
0	6732	5.1	514.1
0	6882	5.2	514.1
0	7032	5.3	514.1
0	7162	5.4	514.1
0	7292	5.5	514.1
0	7422	5.6	514.1
0	7545	5.7	514.1
0	7668	5.8	514.1
0	7791	5.9	514.1
0	7921	6	514.1
1	3	0.1	210.9
1	8	0.2	210.9
1	70	0.3	210.9
1	132	0.4	210.9
1	194	0.5	210.9
1	256	0.6	210.9
1	314	0.7	210.9
1	376	0.8	210.9
1	434	0.9	210.9
1	515	1	210.9
1	647	1.1	210.9
1	817	1.2	210.9
1	981	1.3	210.9
1	1151	1.4	210.9
1	1321	1.5	210.9
1	1465	1.6	210.9
1	1608	1.7	210.9
1	1752	1.8	210.9
1	1915	1.9	210.9
1	2085	2	210.9
1	2255	2.1	210.9
1	2425	2.2	210.9
1	2595	2.3	210.9
1	2765	2.4	210.9
1	2914	2.5	210.9
1	3044	2.6	210.9
1	3174	2.7	210.9
1	3304	2.8	210.9
1	3455	2.9	210.9
1	3625	3	210.86916342349
1	3795	3.1	210.76637483513
1	3945	3.2	210.66358624677
1	4088	3.3	210.56079765841
1	4238	3.4	210.21533383461
1	4388	3.5	209.84138541674
1	4538	3.6	209.44572833145
1	4688	3.7	208.82248096834
1	4838	3.8	208.19923360523
1	4987	3.9	207.54910641086
1	5110	4	206.82958629234
1	5240	4.1	206.11006617382
1	5370	4.2	205.3905460553
1	5500	4.3	204.62873971
1	5624	4.4	203.76702841
1	5794	4.5	202.80531711
1	5957	4.6	201.74360581
1	6127	4.7	200.58189451
1	6289	4.8	199.42018321
1	6439	4.9	198.05847191
1	6589	5	196.59676061
1	6732	5.1	195.05375167
1	6882	5.2	193.50321097
1	7032	5.3	192.00767027
1	7162	5.4	190.61212957
1	7292	5.5	189.31658887
1	7422	5.6	188.12104817
1	7545	5.7	187.02550747
1	7668	5.8	186.02996677
1	7791	5.9	185.13442607
1	7921	6	184.33888537
2	8	0.2	1.9
2	70	0.3	2.9
2	132	0.4	3.9
2	194	0.5	4.9
2	256	0.6	5.9
2	314	0.7	6.9
2	376	0.8	7.9
2	434	0.9	8.9
2	515	1	9.9
2	647	1.1	10.9
2	817	1.2	11.9
2	981	1.3	12.9
2	1151	1.4	13.9
2	1321	1.5	14.9
2	1465	1.6	15.505407
2	1608	1.7	15.505407
2	1752	1.8	15.505407
2	1915	1.9	15.307915974194
2	2085	2	14.307915974194
2	2255	2.1	13.307915974194
2	2425	2.2	12.307915974194
2	2595	2.3	11.307915974194
2	2765	2.4	10.307915974194
2	2914	2.5	9.5079159741936
2	3044	2.6	10.507915974194
2	3174	2.7	10.044034111705
2	3304	2.8	9.0440341117051
2	3455	2.9	8.0440341117051
2	3625	3	7.267113
2	3795	3.1	7.267113
2	3945	3.2	7.267113
2	4088	3.3	7.267113
2	4238	3.4	7.267113
2	4388	3.5	7.267113
2	4538	3.6	7.267113
2	4688	3.7	7.267113
2	4838	3.8	7.267113
2	4987	3.9	7.267113
2	5110	4	7.267113
2	5240	4.1	7.267113
2	5370	4.2	7.267113
2	5500	4.3	8.067113
2	5624	4.4	9.067113
2	5794	4.5	10.067113
2	5957	4.6	11.067113
2	6127	4.7	12.067113
2	6289	4.8	13.067113
2	6439	4.9	14.067113
2	6589	5	15.067113
2	6732	5.1	15.505407
2	6882	5.2	15.505407
2	7032	5.3	14.505407
2	7162	5.4	13.505407
2	7292	5.5	12.505407
2	7422	5.6	11.505407
2	7545	5.7	10.505407
2	7668	5.8	9.505407
2	7791	5.9	8.505407
2	7921	6	7.505407
3	70	0.3	10
3	132	0.4	10
3	194	0.5	10
3	256	0.6	10
3	314	0.7	10
3	376	0.8	10
3	434	0.9	10
3	515	1	10
3	647	1.1	10
3	817	1.2	10
3	981	1.3	10
3	1151	1.4	10
3	1321	1.5	10
3	1465	1.6	6.0540700000004
3	1608	1.7	0
3	1752	1.8	0
3	1915	1.9	-1.9749102580644
3	2085	2	-9.9999999999999
3	2255	2.1	-10
3	2425	2.2	-10
3	2595	2.3	-10
3	2765	2.4	-10
3	2914	2.5	-8
3	3044	2.6	10
3	3174	2.7	-4.638818624885
3	3304	2.8	-10
3	3455	2.9	-10
3	3625	3	-7.7692111170509
3	3795	3.1	0
3	3945	3.2	0
3	4088	3.3	0
3	4238	3.4	0
3	4388	3.5	0
3	4538	3.6	0
3	4688	3.7	0
3	4838	3.8	0
3	4987	3.9	0
3	5110	4	0
3	5240	4.1	0
3	5370	4.2	0
3	5500	4.3	8
3	5624	4.4	10
3	5794	4.5	10
3	5957	4.6	10
3	6127	4.7	10
3	6289	4.8	10
3	6439	4.9	10
3	6589	5	10
3	6732	5.1	4.3829400000003
3	6882	5.2	0
3	7032	5.3	-10
3	7162	5.4	-10
3	7292	5.5	-10
3	7422	5.6	-10
3	7545	5.7	-10
3	7668	5.8	-10
3	7791	5.9	-10
3	7921	6	-10
4	70	0.3	8.2411490285043
4	132	0.4	10.702615822783
4	194	0.5	13.166244282853
4	256	0.6	15.632588681995
4	314	0.7	18.10220329349
4	376	0.8	20.575642390616
4	434	0.9	23.053460246655
4	515	1	25.536211134885
4	647	1.1	28.024449328587
4	817	1.2	30.518729101042
4	981	1.3	33.019604725528
4	1151	1.4	35.527630475327
4	1321	1.5	38.043360623717
4	1465	1.6	24.82521583525
4	1608	1.7	2.2023483703342
4	1752	1.8	2.2023483703342
4	1915	1.9	0.973
4	2085	2	0.973
4	2255	2.1	0.973
4	2425	2.2	0.973
4	2595	2.3	0.973
4	2765	2.4	0.973
4	2914	2.5	0.973
4	3044	2.6	27.048161514917
4	3174	2.7	0.973
4	3304	2.8	0.973
4	3455	2.9	0.973
4	3625	3	0.973
4	3795	3.1	1.4960189753579
4	3945	3.2	1.4960189753579
4	4088	3.3	1.4960189753579
4	4238	3.4	1.4960189753579
4	4388	3.5	1.4960189753579
4	4538	3.6	1.4960189753579
4	4688	3.7	1.4960189753579
4	4838	3.8	1.4960189753579
4	4987	3.9	1.4960189753579
4	5110	4	1.4960189753579
4	5240	4.1	1.4960189753579
4	5370	4.2	1.4960189753579
4	5500	4.3	17.1010497619
4	5624	4.4	23.468001884139
4	5794	4.5	25.95163119884
4	5957	4.6	28.440840445284
4	6127	4.7	30.936183896751
4	6289	4.8	33.43821582652
4	6439	4.9	35.947490507872
4	6589	5	38.464562214087
4	6732	5.1	18.580532092471
4	6882	5.2	2.2023483703342
4	7032	5.3	0.973
4	7162	5.4	0.973
4	7292	5.5	0.973
4	7422	5.6	0.973
4	7545	5.7	0.973
4	7668	5.8	0.973
4	7791	5.9	0.973
4	7921	6	0.973
5	434	0.9	548.79
5	515	1	548.695
5	647	1.1	548.5
5	817	1.2	548.205
5	981	1.3	547.81
5	1151	1.4	547.315
5	1321	1.5	546.72
5	1465	1.6	546.025
5	1608	1.7	545.23
5	1752	1.8	544.335
5	1915	1.9	543.34
5	2085	2	542.245
5	2255	2.1	541.08903579101
5	2425	2.2	539.98010872371
5	2595	2.3	538.9234125885
5	2765	2.4	537.91772849906
5	2914	2.5	536.96180313605
5	3044	2.6	535.9995893797
5	3174	2.7	535.0070239201
5	3304	2.8	534.00496181789
5	3455	2.9	532.96382257133
5	3625	3	532.0175403142
5	3795	3.1	531.17125805707
5	3945	3.2	530.37491963759
5	4088	3.3	529.56644725849
5	4238	3.4	528.76240495008
5	4388	3.5	527.96255621544
5	4538	3.6	527.16668984256
5	4688	3.7	526.37459118958
5	4838	3.8	525.5860631466
5	4987	3.9	524.80092140318
5	5110	4	524.01898051276
5	5240	4.1	523.24007131436
5	5370	4.2	522.46466014814
5	5500	4.3	521.6792142784
5	5624	4.4	520.8514155324
5	5794	4.5	520.0639071324
5	5957	4.6	519.36969988825
5	6127	4.7	518.69394525934
5	6289	4.8	518.01819063042
5	6439	4.9	517.34243600151
5	6589	5	516.74473018609
5	6732	5.1	516.15939243147
5	6882	5.2	515.57405467684
5	7032	5.3	515.19323015333
5	7162	5.4	514.84202750056
5	7292	5.5	514.49082484778
5	7422	5.6	514.36468530174
5	7545	5.7	514.26814892618
5	7668	5.8	514.17161255063
5	7791	5.9	514.1
5	7921	6	514.1
6	434	0.9	210.9
6	515	1	210.9
6	647	1.1	210.9
6	817	1.2	210.9
6	981	1.3	210.9
6	1151	1.4	210.9
6	1321	1.5	210.9
6	1465	1.6	210.9
6	1608	1.7	210.9
6	1752	1.8	210.9
6	1915	1.9	210.9
6	2085	2	210.9
6	2255	2.1	210.9
6	2425	2.2	210.9
6	2595	2.3	210.9
6	2765	2.4	210.9
6	2914	2.5	210.9
6	3044	2.6	210.9
6	3174	2.7	210.9
6	3304	2.8	210.9
6	3455	2.9	210.9
6	3625	3	210.9
6	3795	3.1	210.9
6	3945	3.2	210.9
6	4088	3.3	210.9
6	4238	3.4	210.9
6	4388	3.5	210.9
6	4538	3.6	210.9
6	4688	3.7	210.9
6	4838	3.8	210.9
6	4987	3.9	210.9
6	5110	4	210.9
6	5240	4.1	210.9
6	5370	4.2	210.9
6	5500	4.3	210.9
6	5624	4.4	210.9
6	5794	4.5	210.9
6	5957	4.6	210.85281426975
6	6127	4.7	210.75627789419
6	6289	4.8	210.65974151863
6	6439	4.9	210.56320514307
6	6589	5	210.24683811166
6	6732	5.1	209.89563545888
6	6882	5.2	209.54443280611
6	7032	5.3	208.98871692222
6	7162	5.4	208.40337916759
6	7292	5.5	207.81804141297
6	7422	5.6	207.15279711221
6	7545	5.7	206.47704248329
6	7668	5.8	205.80128785438
6	7791	5.9	205.1207895324
6	7921	6	204.3632811324
7	515	1	1.4
7	647	1.1	2.4
7	817	1.2	3.4
7	981	1.3	4.4
7	1151	1.4	5.4
7	1321	1.5	6.4
7	1465	1.6	7.4
7	1608	1.7	8.4
7	1752	1.8	9.4
7	1915	1.9	10.4
7	2085	2	11.4
7	2255	2.1	11.381148958024
7	2425	2.2	10.852226436576
7	2595	2.3	10.335352766584
7	2765	2.4	9.8308266492679
7	2914	2.5	9.3389599666918
7	3044	2.6	9.8630317637273
7	3174	2.7	9.7546779702258
7	3304	2.8	10.455672042479
7	3455	2.9	10.012822571334
7	3625	3	9.0128225713345
7	3795	3.1	8.0128225713345
7	3945	3.2	8.1100032542152
7	4088	3.3	8.0643825578145
7	4238	3.4	8.0211808771415
7	4388	3.5	7.9802114244023
7	4538	3.6	7.9413602598675
7	4688	3.7	7.9046257918981
7	4838	3.8	7.8697272127664
7	4987	3.9	7.8367156628161
7	5110	4	7.8055125043824
7	5240	4.1	7.7758859286126
7	5370	4.2	7.7482155500804
7	5500	4.3	8.0295098929636
7	5624	4.4	8.425084
7	5794	4.5	7.425084
7	5957	4.6	6.825084
7	6127	4.7	6.825084
7	6289	4.8	6.825084
7	6439	4.9	6.825084
7	6589	5	6.825084
7	6732	5.1	6.825084
7	6882	5.2	6.825084
7	7032	5.3	6.825084
7	7162	5.4	6.825084
7	7292	5.5	6.825084
7	7422	5.6	6.825084
7	7545	5.7	6.825084
7	7668	5.8	6.825084
7	7791	5.9	7.025084
7	7921	6	8.025084
8	647	1.1	10
8	817	1.2	10
8	981	1.3	10
8	1151	1.4	10
8	1321	1.5	10
8	1465	1.6	10
8	1608	1.7	10
8	1752	1.8	10
8	1915	1.9	10
8	2085	2	10
8	2255	2.1	-0.18851041976216
8	2425	2.2	-5.2892252144801
8	2595	2.3	-5.1687366999135
8	2765	2.4	-5.0452611731646
8	2914	2.5	-4.9186668257612
8	3044	2.6	5.2407179703545
8	3174	2.7	-1.0835379350145
8	3304	2.8	7.0099407225307
8	3455	2.9	-4.428494711444
8	3625	3	-10
8	3795	3.1	-10
8	3945	3.2	0.9718068288071
8	4088	3.3	-0.45620696400695
8	4238	3.4	-0.43201680673029
8	4388	3.5	-0.40969452739218
8	4538	3.6	-0.38851164534761
8	4688	3.7	-0.36734467969385
8	4838	3.8	-0.34898579131688
8	4987	3.9	-0.33011549950317
8	5110	4	-0.3120315843376
8	5240	4.1	-0.29626575769792
8	5370	4.2	-0.276703785322
8	5500	4.3	2.8129434288329
8	5624	4.4	3.9557410703635
8	5794	4.5	-10
8	5957	4.6	-6
8	6127	4.7	0
8	6289	4.8	0
8	6439	4.9	0
8	6589	5	0
8	6732	5.1	0
8	6882	5.2	0
8	7032	5.3	0
8	7162	5.4	0
8	7292	5.5	0
8	7422	5.6	0
8	7545	5.7	0
8	7668	5.8	0
8	7791	5.9	2
8	7921	6	10
9	647	1.1	7.0110530456371
9	817	1.2	9.4716468594995
9	981	1.3	11.934125202514
9	1151	1.4	14.39904234796
9	1321	1.5	16.866952569119
9	1465	1.6	19.338410139269
9	1608	1.7	21.813969331691
9	1752	1.8	24.294184419666
9	1915	1.9	26.779609676472
9	2085	2	29.270799375391
9	2255	2.1	1.278155065962
9	2425	2.2	0.973
9	2595	2.3	0.973
9	2765	2.4	0.973
9	2914	2.5	0.973
9	3044	2.6	14.131565036217
9	3174	2.7	0.973
9	3304	2.8	19.383740556725
9	3455	2.9	0.973
9	3625	3	0.973
9	3795	3.1	0.973
9	3945	3.2	3.4499095217161
9	4088	3.3	0.973
9	4238	3.4	0.973
9	4388	3.5	0.973
9	4538	3.6	0.973
9	4688	3.7	0.973
9	4838	3.8	0.973
9	4987	3.9	0.973
9	5110	4	0.973
9	5240	4.1	0.973
9	5370	4.2	0.973
9	5500	4.3	6.9885271450641
9	5624	4.4	9.6035870045187
9	5794	4.5	0.973
9	5957	4.6	0.973
9	6127	4.7	1.4686115617721
9	6289	4.8	1.4686115617721
9	6439	4.9	1.4686115617721
9	6589	5	1.4686115617721
9	6732	5.1	1.4686115617721
9	6882	5.2	1.4686115617721
9	7032	5.3	1.4686115617721
9	7162	5.4	1.4686115617721
9	7292	5.5	1.4686115617721
9	7422	5.6	1.4686115617721
9	7545	5.7	1.4686115617721
9	7668	5.8	1.4686115617721
9	7791	5.9	4.8670083511707
9	7921	6	20.885326783699
0	8045	6.1	514.1
0	8195	6.2	514.1
0	8345	6.3	514.1
0	8495	6.4	514.1
0	8638	6.5	514.1
0	8788	6.6	514.1
0	8938	6.7	514.1
0	9088	6.8	514.1
0	9231	6.9	514.1
0	9375	7	514.1
0	9525	7.1	514.1
0	9668	7.2	514.1
0	9810	7.3	514.1
0	9933	7.4	514.1
0	10056	7.5	514.1
0	10179	7.6	514.1
0	10309	7.7	514.1
0	10439	7.8	514.1
0	10569	7.9	514.1
0	10692	8	514.1
0	10822	8.1	514.1
0	10952	8.2	514.1
0	11076	8.3	514.1
0	11206	8.4	514.1
0	11329	8.5	514.1
0	11459	8.6	514.1
0	11589	8.7	514.1
0	11719	8.8	514.1
0	11849	8.9	514.1
0	11979	9	514.1
0	12109	9.1	514.1
0	12239	9.2	514.1
0	12369	9.3	514.1
0	12499	9.4	514.1
0	12622	9.5	514.1
0	12752	9.6	514.1
0	12882	9.7	514.1
0	13005	9.8	514.1
0	13129	9.9	514.1
0	13259	10	514.1
0	13389	10.1	514.1
0	13519	10.2	514.1
0	13649	10.3	514.1
0	13779	10.4	514.1
0	13902	10.5	514.1
0	14032	10.6	514.1
0	14162	10.7	514.1
0	14285	10.8	514.1
0	14415	10.9	514.1
0	14545	11	514.1
0	14675	11.1	514.1
0	14805	11.2	514.1
0	14935	11.3	514.1
0	15065	11.4	514.1
0	15188	11.5	514.1
0	15318	11.6	514.1
0	15448	11.7	514.1
0	15578	11.8	514.1
0	15702	11.9	514.1
0	15832	12	514.1
0	15955	12.1	514.1
0	16079	12.2	514.1
0	16202	12.3	514.1
0	16326	12.4	514.1
0	16449	12.5	514.1
0	16579	12.6	514.1
0	16709	12.7	514.1
0	16833	12.8	514.1
0	16963	12.9	514.1
0	17086	13	514.1
0	17216	13.1	514.1
0	17346	13.2	514.1
0	17476	13.3	514.1
0	17606	13.4	514.1
0	17736	13.5	514.1
0	17866	13.6	514.1
0	17996	13.7	514.1
0	18119	13.8	514.1
0	18249	13.9	514.1
0	18379	14	514.1
0	18502	14.1	514.1
0	18632	14.2	514.1
0	18762	14.3	514.1
0	18892	14.4	514.1
0	19022	14.5	514.1
0	19152	14.6	514.1
0	19282	14.7	514.1
0	19412	14.8	514.1
0	19542	14.9	514.1
0	19665	15	514.1
0	19789	15.1	514.1
0	19919	15.2	514.1
0	20049	15.3	514.1
0	20179	15.4	514.1
0	20309	15.5	514.1
0	20439	15.6	514.1
0	20569	15.7	514.1
0	20692	15.8	514.1
0	20822	15.9	514.1
0	20952	16	514.1
0	21076	16.1	514.1
0	21206	16.2	514.1
0	21336	16.3	514.1
0	21466	16.4	514.1
0	21596	16.5	514.1
0	21726	16.6	514.1
0	21856	16.7	514.1
0	21986	16.8	514.1
0	22116	16.9	514.1
0	22246	17	514.1
0	22376	17.1	514.1
0	22506	17.2	514.1
0	22636	17.3	514.1
0	22766	17.4	514.1
0	22938	17.5	514.1
0	23129	17.6	514.1
0	23278	17.7	514.1
0	23408	17.8	514.1
0	23538	17.9	514.1
0	23668	18	514.1
0	23791	18.1	514.1
0	23921	18.2	514.1
0	24086	18.3	514.1
0	24235	18.4	514.1
0	24407	18.5	514.1
0	24598	18.6	514.1
0	24789	18.7	514.1
0	24931	18.8	514.1
0	25061	18.9	514.1
0	25185	19	514.1
0	25315	19.1	514.1
0	25445	19.2	514.1
0	25617	19.3	514.1
0	25779	19.4	514.1
1	8045	6.1	183.64334467
1	8195	6.2	183.04780397
1	8345	6.3	182.55226327
1	8495	6.4	182.15672257
1	8638	6.5	181.86118187
1	8788	6.6	181.66564117
1	8938	6.7	181.57010047
1	9088	6.8	181.55983012
1	9231	6.9	181.55983012
1	9375	7	181.55983012
1	9525	7.1	181.55983012
1	9668	7.2	181.55983012
1	9810	7.3	181.55983012
1	9933	7.4	181.55983012
1	10056	7.5	181.55983012
1	10179	7.6	181.55983012
1	10309	7.7	181.55983012
1	10439	7.8	181.55983012
1	10569	7.9	181.55983012
1	10692	8	181.55983012
1	10822	8.1	181.55983012
1	10952	8.2	181.55983012
1	11076	8.3	181.55983012
1	11206	8.4	181.55983012
1	11329	8.5	181.55983012
1	11459	8.6	181.55983012
1	11589	8.7	181.55983012
1	11719	8.8	181.55983012
1	11849	8.9	181.55983012
1	11979	9	181.55983012
1	12109	9.1	181.55983012
1	12239	9.2	181.55983012
1	12369	9.3	181.55983012
1	12499	9.4	181.55983012
1	12622	9.5	181.55983012
1	12752	9.6	181.55983012
1	12882	9.7	181.55983012
1	13005	9.8	181.55983012
1	13129	9.9	181.55983012
1	13259	10	181.55983012
1	13389	10.1	181.55983012
1	13519	10.2	181.55983012
1	13649	10.3	181.55983012
1	13779	10.4	181.55983012
1	13902	10.5	181.55983012
1	14032	10.6	181.55983012
1	14162	10.7	181.55983012
1	14285	10.8	181.55983012
1	14415	10.9	181.55983012
1	14545	11	181.55983012
1	14675	11.1	181.55983012
1	14805	11.2	181.55983012
1	14935	11.3	181.55983012
1	15065	11.4	181.55983012
1	15188	11.5	181.55983012
1	15318	11.6	181.55983012
1	15448	11.7	181.55983012
1	15578	11.8	181.55983012
1	15702	11.9	181.55983012
1	15832	12	181.55983012
1	15955	12.1	181.55983012
1	16079	12.2	181.55983012
1	16202	12.3	181.55983012
1	16326	12.4	181.55983012
1	16449	12.5	181.55983012
1	16579	12.6	181.55983012
1	16709	12.7	181.55983012
1	16833	12.8	181.55983012
1	16963	12.9	181.55983012
1	17086	13	181.55983012
1	17216	13.1	181.55983012
1	17346	13.2	181.55983012
1	17476	13.3	181.55983012
1	17606	13.4	181.55983012
1	17736	13.5	181.55983012
1	17866	13.6	181.55983012
1	17996	13.7	181.55983012
1	18119	13.8	181.55983012
1	18249	13.9	181.55983012
1	18379	14	181.55983012
1	18502	14.1	181.55983012
1	18632	14.2	181.55983012
1	18762	14.3	181.55983012
1	18892	14.4	181.55983012
1	19022	14.5	181.55983012
1	19152	14.6	181.55983012
1	19282	14.7	181.55983012
1	19412	14.8	181.55983012
1	19542	14.9	181.55983012
1	19665	15	181.55983012
1	19789	15.1	181.55983012
1	19919	15.2	181.55983012
1	20049	15.3	181.55983012
1	20179	15.4	181.55983012
1	20309	15.5	181.55983012
1	20439	15.6	181.55983012
1	20569	15.7	181.55983012
1	20692	15.8	181.55983012
1	20822	15.9	181.55983012
1	20952	16	181.55983012
1	21076	16.1	181.55983012
1	21206	16.2	181.55983012
1	21336	16.3	181.55983012
1	21466	16.4	181.55983012
1	21596	16.5	181.55983012
1	21726	16.6	181.55983012
1	21856	16.7	181.55983012
1	21986	16.8	181.55983012
1	22116	16.9	181.55983012
1	22246	17	181.55983012
1	22376	17.1	181.55983012
1	22506	17.2	181.55983012
1	22636	17.3	181.55983012
1	22766	17.4	181.55983012
1	22938	17.5	181.55983012
1	23129	17.6	181.55983012
1	23278	17.7	181.55983012
1	23408	17.8	181.55983012
1	23538	17.9	181.55983012
1	23668	18	181.55983012
1	23791	18.1	181.55983012
1	23921	18.2	181.55983012
1	24086	18.3	181.55983012
1	24235	18.4	181.55983012
1	24407	18.5	181.55983012
1	24598	18.6	181.55983012
1	24789	18.7	181.55983012
1	24931	18.8	181.50483012
1	25061	18.9	181.34983012
1	25185	19	181.09483012
1	25315	19.1	180.73983012
1	25445	19.2	180.28483012
1	25617	19.3	179.72983012
1	25779	19.4	179.07483012
2	8045	6.1	6.505407
2	8195	6.2	5.505407
2	8345	6.3	4.505407
2	8495	6.4	3.505407
2	8638	6.5	2.505407
2	8788	6.6	1.505407
2	8938	6.7	0.50540700000004
2	9088	6.8	0
2	9231	6.9	0
2	9375	7	0
2	9525	7.1	0
2	9668	7.2	0
2	9810	7.3	0
2	9933	7.4	0
2	10056	7.5	0
2	10179	7.6	0
2	10309	7.7	0
2	10439	7.8	0
2	10569	7.9	0
2	10692	8	0
2	10822	8.1	0
2	10952	8.2	0
2	11076	8.3	0
2	11206	8.4	0
2	11329	8.5	0
2	11459	8.6	0
2	11589	8.7	0
2	11719	8.8	0
2	11849	8.9	0
2	11979	9	0
2	12109	9.1	0
2	12239	9.2	0
2	12369	9.3	0
2	12499	9.4	0
2	12622	9.5	0
2	12752	9.6	0
2	12882	9.7	0
2	13005	9.8	0
2	13129	9.9	0
2	13259	10	0
2	13389	10.1	0
2	13519	10.2	0
2	13649	10.3	0
2	13779	10.4	0
2	13902	10.5	0
2	14032	10.6	0
2	14162	10.7	0
2	14285	10.8	0
2	14415	10.9	0
2	14545	11	0
2	14675	11.1	0
2	14805	11.2	0
2	14935	11.3	0
2	15065	11.4	0
2	15188	11.5	0
2	15318	11.6	0
2	15448	11.7	0
2	15578	11.8	0
2	15702	11.9	0
2	15832	12	0
2	15955	12.1	0
2	16079	12.2	0
2	16202	12.3	0
2	16326	12.4	0
2	16449	12.5	0
2	16579	12.6	0
2	16709	12.7	0
2	16833	12.8	0
2	16963	12.9	0
2	17086	13	0
2	17216	13.1	0
2	17346	13.2	0
2	17476	13.3	0
2	17606	13.4	0
2	17736	13.5	0
2	17866	13.6	0
2	17996	13.7	0
2	18119	13.8	0
2	18249	13.9	0
2	18379	14	0
2	18502	14.1	0
2	18632	14.2	0
2	18762	14.3	0
2	18892	14.4	0
2	19022	14.5	0
2	19152	14.6	0
2	19282	14.7	0
2	19412	14.8	0
2	19542	14.9	0
2	19665	15	0
2	19789	15.1	0
2	19919	15.2	0
2	20049	15.3	0
2	20179	15.4	0
2	20309	15.5	0
2	20439	15.6	0
2	20569	15.7	0
2	20692	15.8	0
2	20822	15.9	0
2	20952	16	0
2	21076	16.1	0
2	21206	16.2	0
2	21336	16.3	0
2	21466	16.4	0
2	21596	16.5	0
2	21726	16.6	0
2	21856	16.7	0
2	21986	16.8	0
2	22116	16.9	0
2	22246	17	0
2	22376	17.1	0
2	22506	17.2	0
2	22636	17.3	0
2	22766	17.4	0
2	22938	17.5	0
2	23129	17.6	0
2	23278	17.7	0
2	23408	17.8	0
2	23538	17.9	0
2	23668	18	0
2	23791	18.1	0
2	23921	18.2	0
2	24086	18.3	0
2	24235	18.4	0
2	24407	18.5	0
2	24598	18.6	0
2	24789	18.7	0
2	24931	18.8	1
2	25061	18.9	2
2	25185	19	3
2	25315	19.1	4
2	25445	19.2	5
2	25617	19.3	6
2	25779	19.4	7
3	8045	6.1	-10
3	8195	6.2	-10
3	8345	6.3	-10
3	8495	6.4	-10
3	8638	6.5	-10
3	8788	6.6	-10
3	8938	6.7	-10
3	9088	6.8	-5.0540700000004
3	9231	6.9	0
3	9375	7	0
3	9525	7.1	0
3	9668	7.2	0
3	9810	7.3	0
3	9933	7.4	0
3	10056	7.5	0
3	10179	7.6	0
3	10309	7.7	0
3	10439	7.8	0
3	10569	7.9	0
3	10692	8	0
3	10822	8.1	0
3	10952	8.2	0
3	11076	8.3	0
3	11206	8.4	0
3	11329	8.5	0
3	11459	8.6	0
3	11589	8.7	0
3	11719	8.8	0
3	11849	8.9	0
3	11979	9	0
3	12109	9.1	0
3	12239	9.2	0
3	12369	9.3	0
3	12499	9.4	0
3	12622	9.5	0
3	12752	9.6	0
3	12882	9.7	0
3	13005	9.8	0
3	13129	9.9	0
3	13259	10	0
3	13389	10.1	0
3	13519	10.2	0
3	13649	10.3	0
3	13779	10.4	0
3	13902	10.5	0
3	14032	10.6	0
3	14162	10.7	0
3	14285	10.8	0
3	14415	10.9	0
3	14545	11	0
3	14675	11.1	0
3	14805	11.2	0
3	14935	11.3	0
3	15065	11.4	0
3	15188	11.5	0
3	15318	11.6	0
3	15448	11.7	0
3	15578	11.8	0
3	15702	11.9	0
3	15832	12	0
3	15955	12.1	0
3	16079	12.2	0
3	16202	12.3	0
3	16326	12.4	0
3	16449	12.5	0
3	16579	12.6	0
3	16709	12.7	0
3	16833	12.8	0
3	16963	12.9	0
3	17086	13	0
3	17216	13.1	0
3	17346	13.2	0
3	17476	13.3	0
3	17606	13.4	0
3	17736	13.5	0
3	17866	13.6	0
3	17996	13.7	0
3	18119	13.8	0
3	18249	13.9	0
3	18379	14	0
3	18502	14.1	0
3	18632	14.2	0
3	18762	14.3	0
3	18892	14.4	0
3	19022	14.5	0
3	19152	14.6	0
3	19282	14.7	0
3	19412	14.8	0
3	19542	14.9	0
3	19665	15	0
3	19789	15.1	0
3	19919	15.2	0
3	20049	15.3	0
3	20179	15.4	0
3	20309	15.5	0
3	20439	15.6	0
3	20569	15.7	0
3	20692	15.8	0
3	20822	15.9	0
3	20952	16	0
3	21076	16.1	0
3	21206	16.2	0
3	21336	16.3	0
3	21466	16.4	0
3	21596	16.5	0
3	21726	16.6	0
3	21856	16.7	0
3	21986	16.8	0
3	22116	16.9	0
3	22246	17	0
3	22376	17.1	0
3	22506	17.2	0
3	22636	17.3	0
3	22766	17.4	0
3	22938	17.5	0
3	23129	17.6	0
3	23278	17.7	0
3	23408	17.8	0
3	23538	17.9	0
3	23668	18	0
3	23791	18.1	0
3	23921	18.2	0
3	24086	18.3	0
3	24235	18.4	0
3	24407	18.5	0
3	24598	18.6	0
3	24789	18.7	0
3	24931	18.8	10
3	25061	18.9	10
3	25185	19	10
3	25315	19.1	10
3	25445	19.2	10
3	25617	19.3	10
3	25779	19.4	10
4	8045	6.1	0.973
4	8195	6.2	0.973
4	8345	6.3	0.973
4	8495	6.4	0.973
4	8638	6.5	0.973
4	8788	6.6	0.973
4	8938	6.7	0.973
4	9088	6.8	0.973
4	9231	6.9	0.973
4	9375	7	0.973
4	9525	7.1	0.973
4	9668	7.2	0.973
4	9810	7.3	0.973
4	9933	7.4	0.973
4	10056	7.5	0.973
4	10179	7.6	0.973
4	10309	7.7	0.973
4	10439	7.8	0.973
4	10569	7.9	0.973
4	10692	8	0.973
4	10822	8.1	0.973
4	10952	8.2	0.973
4	11076	8.3	0.973
4	11206	8.4	0.973
4	11329	8.5	0.973
4	11459	8.6	0.973
4	11589	8.7	0.973
4	11719	8.8	0.973
4	11849	8.9	0.973
4	11979	9	0.973
4	12109	9.1	0.973
4	12239	9.2	0.973
4	12369	9.3	0.973
4	12499	9.4	0.973
4	12622	9.5	0.973
4	12752	9.6	0.973
4	12882	9.7	0.973
4	13005	9.8	0.973
4	13129	9.9	0.973
4	13259	10	0.973
4	13389	10.1	0.973
4	13519	10.2	0.973
4	13649	10.3	0.973
4	13779	10.4	0.973
4	13902	10.5	0.973
4	14032	10.6	0.973
4	14162	10.7	0.973
4	14285	10.8	0.973
4	14415	10.9	0.973
4	14545	11	0.973
4	14675	11.1	0.973
4	14805	11.2	0.973
4	14935	11.3	0.973
4	15065	11.4	0.973
4	15188	11.5	0.973
4	15318	11.6	0.973
4	15448	11.7	0.973
4	15578	11.8	0.973
4	15702	11.9	0.973
4	15832	12	0.973
4	15955	12.1	0.973
4	16079	12.2	0.973
4	16202	12.3	0.973
4	16326	12.4	0.973
4	16449	12.5	0.973
4	16579	12.6	0.973
4	16709	12.7	0.973
4	16833	12.8	0.973
4	16963	12.9	0.973
4	17086	13	0.973
4	17216	13.1	0.973
4	17346	13.2	0.973
4	17476	13.3	0.973
4	17606	13.4	0.973
4	17736	13.5	0.973
4	17866	13.6	0.973
4	17996	13.7	0.973
4	18119	13.8	0.973
4	18249	13.9	0.973
4	18379	14	0.973
4	18502	14.1	0.973
4	18632	14.2	0.973
4	18762	14.3	0.973
4	18892	14.4	0.973
4	19022	14.5	0.973
4	19152	14.6	0.973
4	19282	14.7	0.973
4	19412	14.8	0.973
4	19542	14.9	0.973
4	19665	15	0.973
4	19789	15.1	0.973
4	19919	15.2	0.973
4	20049	15.3	0.973
4	20179	15.4	0.973
4	20309	15.5	0.973
4	20439	15.6	0.973
4	20569	15.7	0.973
4	20692	15.8	0.973
4	20822	15.9	0.973
4	20952	16	0.973
4	21076	16.1	0.973
4	21206	16.2	0.973
4	21336	16.3	0.973
4	21466	16.4	0.973
4	21596	16.5	0.973
4	21726	16.6	0.973
4	21856	16.7	0.973
4	21986	16.8	0.973
4	22116	16.9	0.973
4	22246	17	0.973
4	22376	17.1	0.973
4	22506	17.2	0.973
4	22636	17.3	0.973
4	22766	17.4	0.973
4	22938	17.5	0.973
4	23129	17.6	0.973
4	23278	17.7	0.973
4	23408	17.8	0.973
4	23538	17.9	0.973
4	23668	18	0.973
4	23791	18.1	0.973
4	23921	18.2	0.973
4	24086	18.3	0.973
4	24235	18.4	0.973
4	24407	18.5	0.973
4	24598	18.6	0.973
4	24789	18.7	0.973
4	24931	18.8	3.56833237888
4	25061	18.9	6.02721903104
4	25185	19	8.48721422976
4	25315	19.1	10.94887224832
4	25445	19.2	13.41274736
4	25617	19.3	15.87939383808
4	25779	19.4	18.34936595584
5	8045	6.1	514.1
5	8195	6.2	514.1
5	8345	6.3	514.1
5	8495	6.4	514.1
5	8638	6.5	514.1
5	8788	6.6	514.1
5	8938	6.7	514.1
5	9088	6.8	514.1
5	9231	6.9	514.1
5	9375	7	514.1
5	9525	7.1	514.1
5	9668	7.2	514.1
5	9810	7.3	514.1
5	9933	7.4	514.1
5	10056	7.5	514.1
5	10179	7.6	514.1
5	10309	7.7	514.1
5	10439	7.8	514.1
5	10569	7.9	514.1
5	10692	8	514.1
5	10822	8.1	514.1
5	10952	8.2	514.1
5	11076	8.3	514.1
5	11206	8.4	514.1
5	11329	8.5	514.1
5	11459	8.6	514.1
5	11589	8.7	514.1
5	11719	8.8	514.1
5	11849	8.9	514.1
5	11979	9	514.1
5	12109	9.1	514.1
5	12239	9.2	514.1
5	12369	9.3	514.1
5	12499	9.4	514.1
5	12622	9.5	514.1
5	12752	9.6	514.1
5	12882	9.7	514.1
5	13005	9.8	514.1
5	13129	9.9	514.1
5	13259	10	514.1
5	13389	10.1	514.1
5	13519	10.2	514.1
5	13649	10.3	514.1
5	13779	10.4	514.1
5	13902	10.5	514.1
5	14032	10.6	514.1
5	14162	10.7	514.1
5	14285	10.8	514.1
5	14415	10.9	514.1
5	14545	11	514.1
5	14675	11.1	514.1
5	14805	11.2	514.1
5	14935	11.3	514.1
5	15065	11.4	514.1
5	15188	11.5	514.1
5	15318	11.6	514.1
5	15448	11.7	514.1
5	15578	11.8	514.1
5	15702	11.9	514.1
5	15832	12	514.1
5	15955	12.1	514.1
5	16079	12.2	514.1
5	16202	12.3	514.1
5	16326	12.4	514.1
5	16449	12.5	514.1
5	16579	12.6	514.1
5	16709	12.7	514.1
5	16833	12.8	514.1
5	16963	12.9	514.1
5	17086	13	514.1
5	17216	13.1	514.1
5	17346	13.2	514.1
5	17476	13.3	514.1
5	17606	13.4	514.1
5	17736	13.5	514.1
5	17866	13.6	514.1
5	17996	13.7	514.1
5	18119	13.8	514.1
5	18249	13.9	514.1
5	18379	14	514.1
5	18502	14.1	514.1
5	18632	14.2	514.1
5	18762	14.3	514.1
5	18892	14.4	514.1
5	19022	14.5	514.1
5	19152	14.6	514.1
5	19282	14.7	514.1
5	19412	14.8	514.1
5	19542	14.9	514.1
5	19665	15	514.1
5	19789	15.1	514.1
5	19919	15.2	514.1
5	20049	15.3	514.1
5	20179	15.4	514.1
5	20309	15.5	514.1
5	20439	15.6	514.1
5	20569	15.7	514.1
5	20692	15.8	514.1
5	20822	15.9	514.1
5	20952	16	514.1
5	21076	16.1	514.1
5	21206	16.2	514.1
5	21336	16.3	514.1
5	21466	16.4	514.1
5	21596	16.5	514.1
5	21726	16.6	514.1
5	21856	16.7	514.1
5	21986	16.8	514.1
5	22116	16.9	514.1
5	22246	17	514.1
5	22376	17.1	514.1
5	22506	17.2	514.1
5	22636	17.3	514.1
5	22766	17.4	514.1
5	22938	17.5	514.1
5	23129	17.6	514.1
5	23278	17.7	514.1
5	23408	17.8	514.1
5	23538	17.9	514.1
5	23668	18	514.1
5	23791	18.1	514.1
5	23921	18.2	514.1
5	24086	18.3	514.1
5	24235	18.4	514.1
5	24407	18.5	514.1
5	24598	18.6	514.1
5	24789	18.7	514.1
5	24931	18.8	514.1
5	25061	18.9	514.1
5	25185	19	514.1
5	25315	19.1	514.1
5	25445	19.2	514.1
5	25617	19.3	514.1
5	25779	19.4	514.1
6	8045	6.1	203.5057727324
6	8195	6.2	202.5482643324
6	8345	6.3	201.49409254872
6	8495	6.4	200.4443160171
6	8638	6.5	199.5453842537
6	8788	6.6	198.59604077091
6	8938	6.7	197.6949966859
6	9088	6.8	196.840933721
6	9231	6.9	196.03250297955
6	9375	7	195.26832951454
6	9525	7.1	194.54701140544
6	9668	7.2	193.89957464299
6	9810	7.3	193.35213788054
6	9933	7.4	192.90470111809
6	10056	7.5	192.55726435563
6	10179	7.6	192.30982759318
6	10309	7.7	192.16239083073
6	10439	7.8	192.11495406828
6	10569	7.9	192.11495406828
6	10692	8	192.11495406828
6	10822	8.1	192.11495406828
6	10952	8.2	192.11495406828
6	11076	8.3	192.11495406828
6	11206	8.4	192.11495406828
6	11329	8.5	192.11495406828
6	11459	8.6	192.11495406828
6	11589	8.7	192.11495406828
6	11719	8.8	192.11495406828
6	11849	8.9	192.11495406828
6	11979	9	192.11495406828
6	12109	9.1	192.11495406828
6	12239	9.2	192.11495406828
6	12369	9.3	192.11495406828
6	12499	9.4	192.11495406828
6	12622	9.5	192.11495406828
6	12752	9.6	192.11495406828
6	12882	9.7	192.11495406828
6	13005	9.8	192.11495406828
6	13129	9.9	192.11495406828
6	13259	10	192.11495406828
6	13389	10.1	192.11495406828
6	13519	10.2	192.11495406828
6	13649	10.3	192.11495406828
6	13779	10.4	192.11495406828
6	13902	10.5	192.11495406828
6	14032	10.6	192.11495406828
6	14162	10.7	192.11495406828
6	14285	10.8	192.11495406828
6	14415	10.9	192.11495406828
6	14545	11	192.11495406828
6	14675	11.1	192.11495406828
6	14805	11.2	192.11495406828
6	14935	11.3	192.11495406828
6	15065	11.4	192.11495406828
6	15188	11.5	192.11495406828
6	15318	11.6	192.11495406828
6	15448	11.7	192.11495406828
6	15578	11.8	192.11495406828
6	15702	11.9	192.11495406828
6	15832	12	192.11495406828
6	15955	12.1	192.11495406828
6	16079	12.2	192.11495406828
6	16202	12.3	192.11495406828
6	16326	12.4	192.11495406828
6	16449	12.5	192.11495406828
6	16579	12.6	192.11495406828
6	16709	12.7	192.11495406828
6	16833	12.8	192.11495406828
6	16963	12.9	192.11495406828
6	17086	13	192.11495406828
6	17216	13.1	192.11495406828
6	17346	13.2	192.11495406828
6	17476	13.3	192.11495406828
6	17606	13.4	192.11495406828
6	17736	13.5	192.11495406828
6	17866	13.6	192.11495406828
6	17996	13.7	192.11495406828
6	18119	13.8	192.11495406828
6	18249	13.9	192.11495406828
6	18379	14	192.11495406828
6	18502	14.1	192.11495406828
6	18632	14.2	192.11495406828
6	18762	14.3	192.11495406828
6	18892	14.4	192.11495406828
6	19022	14.5	192.11495406828
6	19152	14.6	192.11495406828
6	19282	14.7	192.11495406828
6	19412	14.8	192.11495406828
6	19542	14.9	192.11495406828
6	19665	15	192.11495406828
6	19789	15.1	192.11495406828
6	19919	15.2	192.11495406828
6	20049	15.3	192.11495406828
6	20179	15.4	192.11495406828
6	20309	15.5	192.11495406828
6	20439	15.6	192.11495406828
6	20569	15.7	192.11495406828
6	20692	15.8	192.11495406828
6	20822	15.9	192.11495406828
6	20952	16	192.11495406828
6	21076	16.1	192.11495406828
6	21206	16.2	192.11495406828
6	21336	16.3	192.11495406828
6	21466	16.4	192.11495406828
6	21596	16.5	192.11495406828
6	21726	16.6	192.11495406828
6	21856	16.7	192.11495406828
6	21986	16.8	192.11495406828
6	22116	16.9	192.11495406828
6	22246	17	192.11495406828
6	22376	17.1	192.11495406828
6	22506	17.2	192.11495406828
6	22636	17.3	192.11495406828
6	22766	17.4	192.11495406828
6	22938	17.5	192.11495406828
6	23129	17.6	192.11495406828
6	23278	17.7	192.11495406828
6	23408	17.8	192.11495406828
6	23538	17.9	192.11495406828
6	23668	18	192.11495406828
6	23791	18.1	192.11495406828
6	23921	18.2	192.11495406828
6	24086	18.3	192.11495406828
6	24235	18.4	192.11495406828
6	24407	18.5	192.11495406828
6	24598	18.6	192.11495406828
6	24789	18.7	192.11495406828
6	24931	18.8	192.11495406828
6	25061	18.9	192.11495406828
6	25185	19	192.11495406828
6	25315	19.1	192.11495406828
6	25445	19.2	192.11495406828
6	25617	19.3	192.11495406828
6	25779	19.4	192.11495406828
7	8045	6.1	9.025084
7	8195	6.2	10.025084
7	8345	6.3	10.782166227536
7	8495	6.4	10.266908406517
7	8638	6.5	9.7640582314817
7	8788	6.6	9.2739322779637
7	8938	6.7	8.796863745107
7	9088	6.8	8.3330239565926
7	9231	6.9	7.8828660223456
7	9375	7	7.4465314419293
7	9525	7.1	7.024367624522
7	9668	7.2	6.024367624522
7	9810	7.3	5.024367624522
7	9933	7.4	4.024367624522
7	10056	7.5	3.024367624522
7	10179	7.6	2.024367624522
7	10309	7.7	1.024367624522
7	10439	7.8	0.024367624521972
7	10569	7.9	0
7	10692	8	0
7	10822	8.1	0
7	10952	8.2	0
7	11076	8.3	0
7	11206	8.4	0
7	11329	8.5	0
7	11459	8.6	0
7	11589	8.7	0
7	11719	8.8	0
7	11849	8.9	0
7	11979	9	0
7	12109	9.1	0
7	12239	9.2	0
7	12369	9.3	0
7	12499	9.4	0
7	12622	9.5	0
7	12752	9.6	0
7	12882	9.7	0
7	13005	9.8	0
7	13129	9.9	0
7	13259	10	0
7	13389	10.1	0
7	13519	10.2	0
7	13649	10.3	0
7	13779	10.4	0
7	13902	10.5	0
7	14032	10.6	0
7	14162	10.7	0
7	14285	10.8	0
7	14415	10.9	0
7	14545	11	0
7	14675	11.1	0
7	14805	11.2	0
7	14935	11.3	0
7	15065	11.4	0
7	15188	11.5	0
7	15318	11.6	0
7	15448	11.7	0
7	15578	11.8	0
7	15702	11.9	0
7	15832	12	0
7	15955	12.1	0
7	16079	12.2	0
7	16202	12.3	0
7	16326	12.4	0
7	16449	12.5	0
7	16579	12.6	0
7	16709	12.7	0
7	16833	12.8	0
7	16963	12.9	0
7	17086	13	0
7	17216	13.1	0
7	17346	13.2	0
7	17476	13.3	0
7	17606	13.4	0
7	17736	13.5	0
7	17866	13.6	0
7	17996	13.7	0
7	18119	13.8	0
7	18249	13.9	0
7	18379	14	0
7	18502	14.1	0
7	18632	14.2	0
7	18762	14.3	0
7	18892	14.4	0
7	19022	14.5	0
7	19152	14.6	0
7	19282	14.7	0
7	19412	14.8	0
7	19542	14.9	0
7	19665	15	0
7	19789	15.1	0
7	19919	15.2	0
7	20049	15.3	0
7	20179	15.4	0
7	20309	15.5	0
7	20439	15.6	0
7	20569	15.7	0
7	20692	15.8	0
7	20822	15.9	0
7	20952	16	0
7	21076	16.1	0
7	21206	16.2	0
7	21336	16.3	0
7	21466	16.4	0
7	21596	16.5	0
7	21726	16.6	0
7	21856	16.7	0
7	21986	16.8	0
7	22116	16.9	0
7	22246	17	0
7	22376	17.1	0
7	22506	17.2	0
7	22636	17.3	0
7	22766	17.4	0
7	22938	17.5	0
7	23129	17.6	0
7	23278	17.7	0
7	23408	17.8	0
7	23538	17.9	0
7	23668	18	0
7	23791	18.1	0
7	23921	18.2	0
7	24086	18.3	0
7	24235	18.4	0
7	24407	18.5	0
7	24598	18.6	0
7	24789	18.7	0
7	24931	18.8	0
7	25061	18.9	0
7	25185	19	0
7	25315	19.1	0
7	25445	19.2	0
7	25617	19.3	0
7	25779	19.4	0
8	8045	6.1	10
8	8195	6.2	10
8	8345	6.3	7.5708222753564
8	8495	6.4	-5.1525782101879
8	8638	6.5	-5.0285017503517
8	8788	6.6	-4.9012595351793
8	8938	6.7	-4.7706853285673
8	9088	6.8	-4.6383978851445
8	9231	6.9	-4.5015793424696
8	9375	7	-4.3633458041627
8	9525	7.1	-4.2216381740737
8	9668	7.2	-10
8	9810	7.3	-10
8	9933	7.4	-10
8	10056	7.5	-10
8	10179	7.6	-10
8	10309	7.7	-10
8	10439	7.8	-10
8	10569	7.9	-0.24367624521972
8	10692	8	0
8	10822	8.1	0
8	10952	8.2	0
8	11076	8.3	0
8	11206	8.4	0
8	11329	8.5	0
8	11459	8.6	0
8	11589	8.7	0
8	11719	8.8	0
8	11849	8.9	0
8	11979	9	0
8	12109	9.1	0
8	12239	9.2	0
8	12369	9.3	0
8	12499	9.4	0
8	12622	9.5	0
8	12752	9.6	0
8	12882	9.7	0
8	13005	9.8	0
8	13129	9.9	0
8	13259	10	0
8	13389	10.1	0
8	13519	10.2	0
8	13649	10.3	0
8	13779	10.4	0
8	13902	10.5	0
8	14032	10.6	0
8	14162	10.7	0
8	14285	10.8	0
8	14415	10.9	0
8	14545	11	0
8	14675	11.1	0
8	14805	11.2	0
8	14935	11.3	0
8	15065	11.4	0
8	15188	11.5	0
8	15318	11.6	0
8	15448	11.7	0
8	15578	11.8	0
8	15702	11.9	0
8	15832	12	0
8	15955	12.1	0
8	16079	12.2	0
8	16202	12.3	0
8	16326	12.4	0
8	16449	12.5	0
8	16579	12.6	0
8	16709	12.7	0
8	16833	12.8	0
8	16963	12.9	0
8	17086	13	0
8	17216	13.1	0
8	17346	13.2	0
8	17476	13.3	0
8	17606	13.4	0
8	17736	13.5	0
8	17866	13.6	0
8	17996	13.7	0
8	18119	13.8	0
8	18249	13.9	0
8	18379	14	0
8	18502	14.1	0
8	18632	14.2	0
8	18762	14.3	0
8	18892	14.4	0
8	19022	14.5	0
8	19152	14.6	0
8	19282	14.7	0
8	19412	14.8	0
8	19542	14.9	0
8	19665	15	0
8	19789	15.1	0
8	19919	15.2	0
8	20049	15.3	0
8	20179	15.4	0
8	20309	15.5	0
8	20439	15.6	0
8	20569	15.7	0
8	20692	15.8	0
8	20822	15.9	0
8	20952	16	0
8	21076	16.1	0
8	21206	16.2	0
8	21336	16.3	0
8	21466	16.4	0
8	21596	16.5	0
8	21726	16.6	0
8	21856	16.7	0
8	21986	16.8	0
8	22116	16.9	0
8	22246	17	0
8	22376	17.1	0
8	22506	17.2	0
8	22636	17.3	0
8	22766	17.4	0
8	22938	17.5	0
8	23129	17.6	0
8	23278	17.7	0
8	23408	17.8	0
8	23538	17.9	0
8	23668	18	0
8	23791	18.1	0
8	23921	18.2	0
8	24086	18.3	0
8	24235	18.4	0
8	24407	18.5	0
8	24598	18.6	0
8	24789	18.7	0
8	24931	18.8	0
8	25061	18.9	0
8	25185	19	0
8	25315	19.1	0
8	25445	19.2	0
8	25617	19.3	0
8	25779	19.4	0
9	8045	6.1	23.363731353859
9	8195	6.2	25.847138286929
9	8345	6.3	21.418724238063
9	8495	6.4	0.973
9	8638	6.5	0.973
9	8788	6.6	0.973
9	8938	6.7	0.973
9	9088	6.8	0.973
9	9231	6.9	0.973
9	9375	7	0.973
9	9525	7.1	0.973
9	9668	7.2	0.973
9	9810	7.3	0.973
9	9933	7.4	0.973
9	10056	7.5	0.973
9	10179	7.6	0.973
9	10309	7.7	0.973
9	10439	7.8	0.973
9	10569	7.9	0.973
9	10692	8	0.973
9	10822	8.1	0.973
9	10952	8.2	0.973
9	11076	8.3	0.973
9	11206	8.4	0.973
9	11329	8.5	0.973
9	11459	8.6	0.973
9	11589	8.7	0.973
9	11719	8.8	0.973
9	11849	8.9	0.973
9	11979	9	0.973
9	12109	9.1	0.973
9	12239	9.2	0.973
9	12369	9.3	0.973
9	12499	9.4	0.973
9	12622	9.5	0.973
9	12752	9.6	0.973
9	12882	9.7	0.973
9	13005	9.8	0.973
9	13129	9.9	0.973
9	13259	10	0.973
9	13389	10.1	0.973
9	13519	10.2	0.973
9	13649	10.3	0.973
9	13779	10.4	0.973
9	13902	10.5	0.973
9	14032	10.6	0.973
9	14162	10.7	0.973
9	14285	10.8	0.973
9	14415	10.9	0.973
9	14545	11	0.973
9	14675	11.1	0.973
9	14805	11.2	0.973
9	14935	11.3	0.973
9	15065	11.4	0.973
9	15188	11.5	0.973
9	15318	11.6	0.973
9	15448	11.7	0.973
9	15578	11.8	0.973
9	15702	11.9	0.973
9	15832	12	0.973
9	15955	12.1	0.973
9	16079	12.2	0.973
9	16202	12.3	0.973
9	16326	12.4	0.973
9	16449	12.5	0.973
9	16579	12.6	0.973
9	16709	12.7	0.973
9	16833	12.8	0.973
9	16963	12.9	0.973
9	17086	13	0.973
9	17216	13.1	0.973
9	17346	13.2	0.973
9	17476	13.3	0.973
9	17606	13.4	0.973
9	17736	13.5	0.973
9	17866	13.6	0.973
9	17996	13.7	0.973
9	18119	13.8	0.973
9	18249	13.9	0.973
9	18379	14	0.973
9	18502	14.1	0.973
9	18632	14.2	0.973
9	18762	14.3	0.973
9	18892	14.4	0.973
9	19022	14.5	0.973
9	19152	14.6	0.973
9	19282	14.7	0.973
9	19412	14.8	0.973
9	19542	14.9	0.973
9	19665	15	0.973
9	19789	15.1	0.973
9	19919	15.2	0.973
9	20049	15.3	0.973
9	20179	15.4	0.973
9	20309	15.5	0.973
9	20439	15.6	0.973
9	20569	15.7	0.973
9	20692	15.8	0.973
9	20822	15.9	0.973
9	20952	16	0.973
9	21076	16.1	0.973
9	21206	16.2	0.973
9	21336	16.3	0.973
9	21466	16.4	0.973
9	21596	16.5	0.973
9	21726	16.6	0.973
9	21856	16.7	0.973
9	21986	16.8	0.973
9	22116	16.9	0.973
9	22246	17	0.973
9	22376	17.1	0.973
9	22506	17.2	0.973
9	22636	17.3	0.973
9	22766	17.4	0.973
9	22938	17.5	0.973
9	23129	17.6	0.973
9	23278	17.7	0.973
9	23408	17.8	0.973
9	23538	17.9	0.973
9	23668	18	0.973
9	23791	18.1	0.973
9	23921	18.2	0.973
9	24086	18.3	0.973
9	24235	18.4	0.973
9	24407	18.5	0.973
9	24598	18.6	0.973
9	24789	18.7	0.973
9	24931	18.8	0.973
9	25061	18.9	0.973
9	25185	19	0.973
9	25315	19.1	0.973
9	25445	19.2	0.973
9	25617	19.3	0.973
9	25779	19.4	0.973
9	25972	19.5	0.973
9	26160	19.6	0.973
9	26352	19.7	0.973
9	26521	19.8	0.973
9	26651	19.9	0.973
9	26781	20	0.973
9	26904	20.1	0.973
9	27034	20.2	0.973
9	27226	20.3	0.973
9	27389	20.4	0.973
9	27539	20.5	0.973
9	27683	20.6	0.973
9	27826	20.7	0.973
9	27956	20.8	0.973
9	28086	20.9	0.973
9	28216	21	0.973
9	28366	21.1	0.973
9	28510	21.2	0.973
9	28660	21.3	0.973
9	28810	21.4	0.973
9	28953	21.5	0.973
9	29076	21.6	0.973
9	29199	21.7	0.973
9	29329	21.8	0.973
9	29479	21.9	0.973
9	29622	22	0.973
9	29772	22.1	0.973
9	29922	22.2	0.973
9	30072	22.3	0.973
9	30202	22.4	0.973
9	30332	22.5	0.973
9	30462	22.6	0.973
9	30605	22.7	0.973
9	30748	22.8	0.973
9	30891	22.9	0.973
9	31041	23	0.973
9	31191	23.1	0.973
9	31314	23.2	0.973
9	31438	23.3	0.973
9	31568	23.4	0.973
9	31711	23.5	0.973
9	31854	23.6	0.973
9	31997	23.7	0.973
9	32140	23.8	0.973
9	32283	23.9	0.973
9	32413	24	0.973
9	32543	24.1	0.973
9	32673	24.2	0.973
9	32816	24.3	0.973
9	32959	24.4	0.973
9	33109	24.5	0.973
9	33259	24.6	0.973
9	33382	24.7	0.973
9	33512	24.8	0.973
9	33642	24.9	0.973
9	33772	25	0.973
9	33902	25.1	0.973
9	34032	25.2	0.973
9	34162	25.3	0.973
9	34292	25.4	0.973
9	34415	25.5	0.973
9	34545	25.6	0.973
9	34675	25.7	0.973
9	34805	25.8	0.973
9	34935	25.9	0.973
9	35065	26	0.973
9	35189	26.1	0.973
9	35319	26.2	0.973
9	35449	26.3	0.973
9	35579	26.4	0.973
9	35702	26.5	0.973
9	35832	26.6	0.973
9	35962	26.7	0.973
9	36092	26.8	0.973
9	36222	26.9	0.973
9	36345	27	0.973
9	36475	27.1	0.973
9	36605	27.2	0.973
9	36735	27.3	0.973
9	36865	27.4	0.973
9	36995	27.5	0.973
9	37125	27.6	0.973
9	37249	27.7	0.973
9	37379	27.8	0.973
9	37509	27.9	0.973
9	37639	28	0.973
9	37769	28.1	0.973
9	37899	28.2	0.973
9	38029	28.3	0.973
9	38152	28.4	0.973
9	38275	28.5	0.973
9	38405	28.6	0.973
9	38528	28.7	0.973
9	38652	28.8	0.973
9	38775	28.9	0.973
9	38899	29	0.973
9	39029	29.1	0.973
9	39159	29.2	0.973
9	39289	29.3	0.973
9	39419	29.4	0.973
9	39542	29.5	0.973
9	39672	29.6	0.973
9	39802	29.7	0.973
9	39932	29.8	0.973
9	40082	29.9	0.973
9	40232	30	0.973
9	40382	30.1	0.973
9	40532	30.2	0.973
9	40662	30.3	0.973
9	40792	30.4	0.973
9	40922	30.5	0.973
9	41052	30.6	0.973
9	41182	30.7	0.973
9	41332	30.8	0.973
9	41482	30.9	0.973
9	41632	31	0.973
9	41782	31.1	0.973
9	41932	31.2	0.973
9	42082	31.3	0.973
9	42232	31.4	0.973
9	42382	31.5	0.973
9	42532	31.6	0.973
9	42662	31.7	0.973
9	42792	31.8	0.973
9	42922	31.9	0.973
9	43052	32	0.973
9	43176	32.1	0.973
9	43319	32.2	0.973
9	43469	32.3	0.973
9	43619	32.4	0.973
9	43742	32.5	0.973
9	43872	32.6	0.973
9	43995	32.7	0.973
9	44125	32.8	0.973
9	44255	32.9	0.973
9	44378	33	0.973
9	44501	33.1	0.973
9	44631	33.2	0.973
9	44754	33.3	0.973
9	44884	33.4	0.973
9	45014	33.5	0.973
9	45144	33.6	0.973
9	45274	33.7	0.973
9	45404	33.8	0.973
9	45527	33.9	0.973
9	45657	34	0.973
9	45801	34.1	0.973
9	45951	34.2	0.973
9	46101	34.3	0.973
9	46251	34.4	0.973
9	46381	34.5	0.973
9	46504	34.6	0.973
9	46634	34.7	0.973
9	46764	34.8	0.973
9	46894	34.9	0.973
9	47044	35	0.973
9	47194	35.1	0.973
9	47344	35.2	0.973
9	47487	35.3	0.973
9	47637	35.4	0.973
9	47787	35.5	0.973
9	47930	35.6	0.973
9	48080	35.7	0.973
9	48230	35.8	0.973
9	48353	35.9	0.973
9	48483	36	0.973
9	48613	36.1	0.973
9	48743	36.2	0.973
9	48873	36.3	0.973
9	49023	36.4	0.973
9	49166	36.5	0.973
9	49316	36.6	0.973
9	49446	36.7	0.973
9	49576	36.8	0.973
9	49706	36.9	0.973
9	49836	37	0.973
9	49966	37.1	0.973
9	50096	37.2	0.973
9	50226	37.3	0.973
9	50356	37.4	0.973
9	50486	37.5	0.973
9	50616	37.6	0.973
9	50746	37.7	0.973
9	50869	37.8	0.973
9	50999	37.9	0.973
9	51129	38	0.973
9	51259	38.1	0.973
9	51382	38.2	0.973
9	51512	38.3	0.973
9	51635	38.4	0.973
9	51765	38.5	0.973
9	51895	38.6	0.973
9	52018	38.7	0.973
9	52148	38.8	0.973
9	52278	38.9	0.973
9	52401	39	0.973
9	52531	39.1	0.973
9	52661	39.2	0.973
9	52811	39.3	0.973
9	52954	39.4	0.973
9	53097	39.5	0.973
9	53247	39.6	0.973
9	53397	39.7	0.973
9	53547	39.8	0.973
9	53697	39.9	0.973
9	53827	40	0.973
9	53957	40.1	0.973
9	54080	40.2	0.973
9	54210	40.3	0.973
9	54360	40.4	0.973
9	54510	40.5	0.973
9	54653	40.6	0.973
9	54796	40.7	0.973
9	54946	40.8	0.973
9	55096	40.9	0.973
9	55246	41	0.973
9	55396	41.1	0.973
9	55546	41.2	0.973
9	55696	41.3	0.973
9	55826	41.4	0.973
9	55949	41.5	0.973
9	56072	41.6	3.56833237888
9	56195	41.7	6.02721903104
9	56345	41.8	8.48721422976
9	56495	41.9	10.94887224832
9	56645	42	13.41274736
9	56788	42.1	15.87939383808
9	56918	42.2	18.34936595584
9	57048	42.3	1.8933863464073
9	57171	42.4	1.4808735082108
9	57301	42.5	1.4808735082108
9	57431	42.6	1.4808735082108
9	57561	42.7	1.4808735082108
9	57691	42.8	1.4808735082108
9	57814	42.9	1.4808735082108
9	57944	43	1.4808735082108
9	58074	43.1	1.4808735082108
9	58204	43.2	1.4808735082108
9	58327	43.3	1.4808735082108
9	58457	43.4	1.4808735082108
9	58587	43.5	1.4808735082108
9	58717	43.6	1.4808735082108
9	58847	43.7	1.4808735082108
9	58991	43.8	1.4808735082108
9	59161	43.9	1.4808735082108
9	59331	44	1.4808735082108
9	59494	44.1	1.4808735082108
9	59643	44.2	1.4808735082108
9	59766	44.3	1.4808735082108
9	59896	44.4	1.4808735082108
9	60026	44.5	1.4808735082108
9	60176	44.6	1.4808735082108
9	60326	44.7	1.4808735082108
9	60470	44.8	1.4808735082108
9	60640	44.9	1.4808735082108
9	60810	45	1.4808735082108
9	60973	45.1	1.4808735082108
9	61143	45.2	1.4808735082108
9	61306	45.3	1.4808735082108
9	61469	45.4	1.4808735082108
9	61639	45.5	1.4808735082108
9	61789	45.6	1.4808735082108
9	61939	45.7	1.4808735082108
9	62082	45.8	1.4808735082108
9	62225	45.9	1.4808735082108
9	62387	46	1.4808735082108
9	62537	46.1	1.4808735082108
9	62687	46.2	1.4808735082108
9	62837	46.3	1.4808735082108
9	62987	46.4	1.4808735082108
9	63137	46.5	1.4808735082108
9	63288	46.6	1.4808735082108
9	63458	46.7	1.4808735082108
9	63621	46.8	1.4808735082108
9	63791	46.9	1.4808735082108
9	63941	47	1.4808735082108
9	64091	47.1	1.4808735082108
9	64241	47.2	1.4808735082108
9	64391	47.3	1.4808735082108
9	64555	47.4	1.4808735082108
9	64718	47.5	1.4808735082108
9	64888	47.6	1.4808735082108
9	65058	47.7	1.4808735082108
9	65207	47.8	1.4808735082108
9	65337	47.9	1.4808735082108
9	65460	48	1.4808735082108
9	65590	48.1	1.4808735082108
9	65720	48.2	1.4808735082108
9	65850	48.3	1.4808735082108
9	65981	48.4	1.4808735082108
9	66131	48.5	1.4808735082108
9	66281	48.6	1.4808735082108
9	66431	48.7	1.4808735082108
9	66581	48.8	1.4808735082108
9	66731	48.9	1.4808735082108
9	66881	49	1.4808735082108
9	67031	49.1	1.4808735082108
9	67181	49.2	1.4808735082108
9	67331	49.3	1.4808735082108
9	67475	49.4	1.4808735082108
9	67618	49.5	1.4808735082108
9	67760	49.6	1.4808735082108
9	67883	49.7	1.4808735082108
9	68013	49.8	1.4808735082108
9	68143	49.9	1.4808735082108
9	68273	50	1.4808735082108
9	68403	50.1	1.4808735082108
9	68534	50.2	1.4808735082108
9	68684	50.3	1.4808735082108
9	68834	50.4	1.4808735082108
9	68984	50.5	1.4808735082108
9	69127	50.6	1.4808735082108
9	69270	50.7	1.4808735082108
9	69420	50.8	1.4808735082108
9	69570	50.9	1.4808735082108
9	69720	51	1.4808735082108
9	69870	51.1	1.4808735082108
9	70020	51.2	1.4808735082108
9	70163	51.3	1.4808735082108
9	70312	51.4	1.4808735082108
9	70442	51.5	1.4808735082108
9	70572	51.6	1.4808735082108
9	70695	51.7	1.4808735082108
9	70818	51.8	1.4808735082108
9	70949	51.9	1.4808735082108
9	71099	52	1.4808735082108
9	71249	52.1	1.4808735082108
9	71399	52.2	1.4808735082108
9	71542	52.3	1.4808735082108
9	71692	52.4	1.4808735082108
9	71835	52.5	1.4808735082108
9	71985	52.6	1.4808735082108
9	72135	52.7	1.4808735082108
9	72285	52.8	1.4808735082108
9	72435	52.9	1.4808735082108
9	72585	53	1.4808735082108
9	72734	53.1	1.4808735082108
9	72864	53.2	1.4808735082108
9	72994	53.3	1.4808735082108
9	73124	53.4	1.4808735082108
9	73247	53.5	1.4808735082108
9	73370	53.6	1.4808735082108
9	73501	53.7	1.4808735082108
9	73651	53.8	1.4808735082108
9	73801	53.9	1.4808735082108
9	73945	54	1.4808735082108
9	74095	54.1	1.4808735082108
9	74244	54.2	1.4808735082108
9	74368	54.3	1.4808735082108
9	74491	54.4	1.4808735082108
9	74621	54.5	1.4808735082108
9	74744	54.6	1.4808735082108
9	74874	54.7	1.4808735082108
9	75004	54.8	1.4808735082108
9	75127	54.9	1.4808735082108
9	75251	55	1.4808735082108
9	75381	55.1	1.4808735082108
9	75505	55.2	1.4808735082108
9	75655	55.3	1.4808735082108
9	75805	55.4	1.4808735082108
9	75955	55.5	1.4808735082108
9	76105	55.6	1.4808735082108
9	76255	55.7	1.4808735082108
9	76385	55.8	1.4808735082108
9	76515	55.9	1.4808735082108
9	76638	56	1.4808735082108
9	76768	56.1	1.4808735082108
9	76899	56.2	1.4808735082108
9	77063	56.3	1.4808735082108
9	77226	56.4	1.4808735082108
9	77396	56.5	1.4808735082108
9	77566	56.6	1.4808735082108
9	77728	56.7	1.4808735082108
9	77871	56.8	1.4808735082108
9	78014	56.9	1.4808735082108
9	78164	57	1.4808735082108
9	78314	57.1	1.4808735082108
9	78465	57.2	1.4808735082108
9	78635	57.3	1.4808735082108
9	78798	57.4	1.4808735082108
9	78941	57.5	1.4808735082108
9	79091	57.6	1.4808735082108
9	79241	57.7	1.4808735082108
9	79384	57.8	1.4808735082108
9	79534	57.9	1.4808735082108
9	79684	58	1.4808735082108
9	79854	58.1	1.4808735082108
9	80024	58.2	1.4808735082108
9	80194	58.3	1.4808735082108
9	80364	58.4	1.4808735082108
9	80513	58.5	1.4808735082108
9	80636	58.6	1.4808735082108
9	80766	58.7	1.4808735082108
9	80889	58.8	1.4808735082108
9	81019	58.9	1.4808735082108
9	81150	59	1.4808735082108
9	81300	59.1	1.4808735082108
9	81444	59.2	1.4808735082108
9	81594	59.3	1.4808735082108
9	81744	59.4	1.4808735082108
9	81893	59.5	1.4808735082108
9	82023	59.6	1.4808735082108
9	82153	59.7	1.4808735082108
9	82276	59.8	1.4808735082108
9	82406	59.9	1.4808735082108
9	82536	60	1.4808735082108
9	82666	60.1	1.4808735082108
9	82790	60.2	1.4808735082108
9	82920	60.3	1.4808735082108
9	83043	60.4	1.4808735082108
9	83186	60.5	1.4808735082108
9	83336	60.6	1.4808735082108
9	83486	60.7	1.4808735082108
9	83636	60.8	1.4808735082108
9	83786	60.9	1.4808735082108
9	83936	61	1.4808735082108
9	84086	61.1	1.4808735082108
9	84236	61.2	1.4808735082108
9	84386	61.3	1.4808735082108
9	84536	61.4	1.4808735082108
9	84687	61.5	1.4808735082108
9	84857	61.6	1.4808735082108
9	85027	61.7	1.4808735082108
9	85197	61.8	1.4808735082108
9	85360	61.9	1.4808735082108
9	85509	62	1.4808735082108
9	85639	62.1	1.4808735082108
9	85769	62.2	1.4808735082108
9	85899	62.3	1.4808735082108
9	86029	62.4	1.4808735082108
9	86152	62.5	1.4808735082108
9	86276	62.6	1.4808735082108
9	86426	62.7	1.4808735082108
9	86576	62.8	1.4808735082108
9	86726	62.9	1.4808735082108
9	86876	63	1.4808735082108
9	87026	63.1	1.4808735082108
9	87176	63.2	1.4808735082108
9	87326	63.3	1.4808735082108
9	87476	63.4	1.4808735082108
9	87626	63.5	1.4808735082108
9	87769	63.6	1.4808735082108
9	87919	63.7	1.4808735082108
9	88068	63.8	1.4808735082108
9	88191	63.9	1.4808735082108
9	88314	64	1.4808735082108
9	88444	64.1	1.4808735082108
9	88567	64.2	1.4808735082108
9	88691	64.3	1.4808735082108
9	88822	64.4	1.4808735082108
9	88965	64.5	1.4808735082108
9	89115	64.6	0.973
9	89265	64.7	1.4686115617721
9	89414	64.8	1.4686115617721
9	89544	64.9	1.4686115617721
9	89674	65	1.4686115617721
9	89804	65.1	1.4686115617721
9	89934	65.2	1.4686115617721
9	90064	65.3	1.4686115617721
9	90194	65.4	1.4686115617721
9	90324	65.5	1.4686115617721
9	90454	65.6	1.4686115617721
9	90584	65.7	1.4686115617721
9	90714	65.8	1.4686115617721
9	90837	65.9	1.4686115617721
9	90967	66	4.8544913790674
9	91097	66.1	1.4808735082108
9	91228	66.2	1.4808735082108
9	91378	66.3	1.4808735082108
9	91528	66.4	1.4808735082108
9	91678	66.5	1.4808735082108
9	91820	66.6	1.4808735082108
9	91950	66.7	1.4808735082108
9	92080	66.8	1.4808735082108
9	92203	66.9	1.4808735082108
9	92333	67	1.4808735082108
9	92463	67.1	1.4808735082108
9	92594	67.2	1.4808735082108
9	92737	67.3	1.4808735082108
9	92887	67.4	1.4808735082108
9	93037	67.5	1.4808735082108
9	93180	67.6	1.4808735082108
9	93330	67.7	1.4808735082108
9	93480	67.8	1.4808735082108
9	93630	67.9	1.4808735082108
9	93780	68	1.4808735082108
9	93930	68.1	1.4808735082108
9	94073	68.2	1.4808735082108
9	94223	68.3	1.4808735082108
9	94372	68.4	1.4808735082108
9	94502	68.5	1.4808735082108
9	94632	68.6	1.4808735082108
9	94762	68.7	1.4808735082108
9	94892	68.8	1.4808735082108
9	95022	68.9	1.4808735082108
9	95153	69	1.4808735082108
9	95303	69.1	1.4808735082108
9	95453	69.2	1.4808735082108
9	95603	69.3	1.4808735082108
9	95772	69.4	1.4808735082108
9	95922	69.5	1.4808735082108
9	96072	69.6	1.4808735082108
9	96222	69.7	1.4808735082108
9	96372	69.8	1.4808735082108
9	96522	69.9	1.4808735082108
9	96672	70	1.4808735082108
9	96802	70.1	1.4808735082108
9	96932	70.2	1.4808735082108
9	97062	70.3	1.4808735082108
9	97192	70.4	1.4808735082108
9	97322	70.5	1.4808735082108
9	97445	70.6	1.4808735082108
9	97575	70.7	1.4808735082108
9	97698	70.8	1.4808735082108
9	97828	70.9	1.4808735082108
9	97958	71	1.4808735082108
9	98088	71.1	1.4808735082108
9	98218	71.2	1.4808735082108
9	98341	71.3	1.4808735082108
9	98471	71.4	1.4808735082108
9	98594	71.5	1.4808735082108
9	98724	71.6	1.4808735082108
9	98847	71.7	1.4808735082108
9	98970	71.8	1.4808735082108
9	99100	71.9	1.4808735082108
9	99230	72	1.4808735082108
9	99353	72.1	1.4808735082108
9	99476	72.2	1.4808735082108
9	99606	72.3	1.4808735082108
9	99736	72.4	1.4808735082108
9	99866	72.5	1.4808735082108
9	99996	72.6	1.4808735082108
9	100126	72.7	1.4808735082108
9	100256	72.8	1.4808735082108
9	100386	72.9	1.4808735082108
9	100516	73	1.4808735082108
9	100646	73.1	1.4808735082108
9	100769	73.2	1.4808735082108
9	100892	73.3	1.4808735082108
9	101022	73.4	1.4808735082108
9	101152	73.5	1.4808735082108
9	101282	73.6	1.4808735082108
9	101412	73.7	1.4808735082108
9	101542	73.8	1.4808735082108
9	101672	73.9	1.4808735082108
9	101802	74	1.4808735082108
9	101932	74.1	1.4808735082108
9	102062	74.2	1.4808735082108
9	102185	74.3	1.4808735082108
9	102315	74.4	1.4808735082108
9	102445	74.5	1.4808735082108
9	102575	74.6	1.4808735082108
9	102705	74.7	1.4808735082108
9	102828	74.8	1.4808735082108
9	102958	74.9	1.4808735082108
9	103088	75	1.4808735082108
9	103212	75.1	1.4808735082108
9	103362	75.2	1.4808735082108
9	103505	75.3	1.4808735082108
9	103648	75.4	1.4808735082108
9	103798	75.5	1.4808735082108
9	103947	75.6	1.4808735082108
9	104070	75.7	1.4808735082108
9	104200	75.8	1.4808735082108
9	104330	75.9	1.4808735082108
9	104460	76	1.4808735082108
9	104590	76.1	1.4808735082108
9	104721	76.2	1.4808735082108
9	104871	76.3	1.4808735082108
9	105014	76.4	1.4808735082108
9	105164	76.5	1.4808735082108
9	105307	76.6	1.4808735082108
9	105470	76.7	1.4808735082108
9	105633	76.8	1.4808735082108
9	105796	76.9	1.4808735082108
9	105959	77	1.4808735082108
9	106129	77.1	1.4808735082108
9	106292	77.2	1.4808735082108
9	106455	77.3	1.4808735082108
9	106624	77.4	1.4808735082108
9	106774	77.5	1.4808735082108
9	106924	77.6	1.4808735082108
9	107067	77.7	1.4808735082108
9	107217	77.8	1.4808735082108
9	107367	77.9	1.4808735082108
9	107511	78	1.4808735082108
9	107681	78.1	1.4808735082108
9	107851	78.2	0.973
9	108021	78.3	1.4686115617721
9	108190	78.4	1.4686115617721
9	108340	78.5	1.4686115617721
9	108490	78.6	1.4686115617721
9	108640	78.7	1.4686115617721
9	108790	78.8	1.4686115617721
9	108940	78.9	1.4686115617721
9	109083	79	1.4686115617721
9	109226	79.1	1.4686115617721
9	109376	79.2	1.4686115617721
9	109520	79.3	1.4686115617721
9	109670	79.4	1.4686115617721
9	109820	79.5	1.4686115617721
9	109970	79.6	4.8544913790674
9	110121	79.7	1.4808735082108
9	110284	79.8	1.4808735082108
9	110454	79.9	1.4808735082108
9	110618	80	1.4808735082108
9	110788	80.1	1.4808735082108
9	110958	80.2	1.4808735082108
9	111128	80.3	1.4808735082108
9	111298	80.4	1.4808735082108
9	111468	80.5	1.4808735082108
9	111631	80.6	1.4808735082108
9	111801	80.7	1.4808735082108
9	111964	80.8	1.4808735082108
9	112127	80.9	1.4808735082108
9	112297	81	1.4808735082108
9	112467	81.1	1.4808735082108
9	112631	81.2	1.4808735082108
9	112800	81.3	1.4808735082108
9	112950	81.4	1.4808735082108
9	113100	81.5	1.4808735082108
9	113250	81.6	1.4808735082108
9	113400	81.7	1.4808735082108
9	113550	81.8	1.4808735082108
9	113700	81.9	1.4808735082108
9	113850	82	1.4808735082108
9	114000	82.1	1.4808735082108
9	114150	82.2	1.4808735082108
9	114293	82.3	1.4808735082108
9	114443	82.4	1.4808735082108
9	114593	82.5	1.4808735082108
9	114743	82.6	1.4808735082108
9	114893	82.7	1.4808735082108
9	115043	82.8	1.4808735082108
9	115186	82.9	1.4808735082108
9	115336	83	1.4808735082108
9	115486	83.1	1.4808735082108
9	115636	83.2	1.4808735082108
9	115781	83.3	1.4808735082108
9	115951	83.4	1.4808735082108
9	116121	83.5	1.4808735082108
9	116291	83.6	1.4808735082108
9	116461	83.7	1.4808735082108
9	116623	83.8	1.4808735082108
9	116773	83.9	1.4808735082108
9	116923	84	1.4808735082108
9	117066	84.1	1.4808735082108
9	117216	84.2	1.4808735082108
9	117367	84.3	1.4808735082108
9	117530	84.4	1.4808735082108
9	117693	84.5	1.4808735082108
9	117863	84.6	1.4808735082108
9	118027	84.7	1.4808735082108
9	118197	84.8	1.4808735082108
9	118367	84.9	1.4808735082108
9	118531	85	1.4808735082108
9	118694	85.1	1.4808735082108
9	118858	85.2	1.4808735082108
9	119021	85.3	1.4808735082108
9	119191	85.4	1.4808735082108
9	119360	85.5	1.4808735082108
9	119503	85.6	1.4808735082108
9	119653	85.7	1.4808735082108
9	119797	85.8	1.4808735082108
9	119947	85.9	1.4808735082108
9	120097	86	1.4808735082108
9	120248	86.1	1.4808735082108
9	120418	86.2	1.4808735082108
9	120581	86.3	1.4808735082108
9	120751	86.4	1.4808735082108
9	120921	86.5	1.4808735082108
9	121084	86.6	1.4808735082108
9	121247	86.7	1.4808735082108
9	121417	86.8	1.4808735082108
9	121587	86.9	1.4808735082108
9	121757	87	1.4808735082108
9	121927	87.1	1.4808735082108
9	122097	87.2	1.4808735082108
9	122266	87.3	1.4808735082108
9	122409	87.4	1.4808735082108
9	122559	87.5	1.4808735082108
9	122702	87.6	1.4808735082108
9	122852	87.7	1.4808735082108
9	122996	87.8	1.4808735082108
9	123140	87.9	1.4808735082108
9	123310	88	1.4808735082108
9	123474	88.1	1.4808735082108
9	123637	88.2	1.4808735082108
9	123807	88.3	1.4808735082108
9	123970	88.4	1.4808735082108
9	124133	88.5	1.4808735082108
9	124303	88.6	1.4808735082108
9	124473	88.7	1.4808735082108
9	124643	88.8	1.4808735082108
9	124813	88.9	1.4808735082108
9	124976	89	1.4808735082108
9	125145	89.1	1.4808735082108
9	125289	89.2	1.4808735082108
9	125439	89.3	1.4808735082108
9	125589	89.4	1.4808735082108
9	125739	89.5	1.4808735082108
9	125889	89.6	1.4808735082108
9	126040	89.7	1.4808735082108
9	126210	89.8	1.4808735082108
9	126380	89.9	1.4808735082108
9	126550	90	1.4808735082108
9	126713	90.1	1.4808735082108
9	126883	90.2	1.4808735082108
9	127053	90.3	1.4808735082108
9	127223	90.4	1.4808735082108
9	127387	90.5	1.4808735082108
9	127557	90.6	1.4808735082108
9	127720	90.7	1.4808735082108
9	127890	90.8	1.4808735082108
9	128059	90.9	1.4808735082108
9	128209	91	1.4808735082108
9	128359	91.1	1.4808735082108
9	128509	91.2	1.4808735082108
9	128652	91.3	1.4808735082108
9	128803	91.4	1.4808735082108
9	128966	91.5	1.4808735082108
9	129136	91.6	1.4808735082108
9	129306	91.7	1.4808735082108
9	129476	91.8	1.4808735082108
9	129646	91.9	1.4808735082108
9	129816	92	1.4808735082108
9	129979	92.1	1.4808735082108
9	130149	92.2	1.4808735082108
9	130313	92.3	1.4808735082108
9	130476	92.4	1.4808735082108
9	130646	92.5	1.4808735082108
9	130816	92.6	1.4808735082108
9	130985	92.7	1.4808735082108
9	131135	92.8	1.4808735082108
9	131285	92.9	1.4808735082108
9	131435	93	1.4808735082108
9	131578	93.1	1.4808735082108
9	131729	93.2	1.4808735082108
9	131892	93.3	1.4808735082108
9	132056	93.4	1.4808735082108
9	132226	93.5	1.4808735082108
9	132396	93.6	1.4808735082108
9	132565	93.7	1.4808735082108
9	132708	93.8	1.4808735082108
9	132858	93.9	1.4808735082108
9	133008	94	1.4808735082108
9	133158	94.1	1.4808735082108
9	133308	94.2	1.4808735082108
9	133451	94.3	1.4808735082108
9	133601	94.4	1.4808735082108
9	133751	94.5	1.4808735082108
9	133901	94.6	1.4808735082108
9	134051	94.7	1.4808735082108
9	134201	94.8	1.4808735082108
9	134344	94.9	1.4808735082108
9	134494	95	1.4808735082108
9	134644	95.1	1.4808735082108
9	134787	95.2	1.4808735082108
9	134930	95.3	1.4808735082108
9	135080	95.4	1.4808735082108
9	135224	95.5	1.4808735082108
9	135374	95.6	1.4808735082108
9	135524	95.7	1.4808735082108
9	135667	95.8	1.4808735082108
9	135810	95.9	1.4808735082108
9	135960	96	1.4808735082108
9	136110	96.1	1.4808735082108
9	136253	96.2	1.4808735082108
9	136403	96.3	1.4808735082108
9	136553	96.4	1.4808735082108
9	136703	96.5	1.4808735082108
9	136846	96.6	1.4808735082108
9	136996	96.7	1.4808735082108
9	137146	96.8	1.4808735082108
9	137296	96.9	1.4808735082108
9	137446	97	1.4808735082108
9	137589	97.1	1.4808735082108
9	137739	97.2	1.4808735082108
9	137882	97.3	1.4808735082108
9	138032	97.4	1.4808735082108
9	138175	97.5	1.4808735082108
9	138325	97.6	1.4808735082108
9	138475	97.7	1.4808735082108
9	138625	97.8	1.4808735082108
9	138768	97.9	1.4808735082108
9	138918	98	1.4808735082108
9	139061	98.1	1.4808735082108
9	139204	98.2	1.4808735082108
9	139347	98.3	1.4808735082108
9	139497	98.4	1.4808735082108
9	139640	98.5	1.4808735082108
9	139790	98.6	1.4808735082108
9	139933	98.7	1.4808735082108
9	140077	98.8	1.4808735082108
9	140220	98.9	1.4808735082108
9	140370	99	1.4808735082108
9	140520	99.1	1.4808735082108
9	140670	99.2	1.4808735082108
9	140821	99.3	1.4808735082108
9	140991	99.4	0.973
9	141161	99.5	0.973
9	141331	99.6	0.973
9	141495	99.7	0.973
9	141658	99.8	0.973
9	141827	99.9	0.973
9	141970	100	0.973
9	142120	100.1	0.973
9	142263	100.2	0.973
9	142406	100.3	0.973
9	142556	100.4	0.973
9	142706	100.5	0.973
9	142856	100.6	0.973
9	143006	100.7	0.973
9	143156	100.8	0.973
9	143306	100.9	0.973
9	143456	101	0.973
9	143606	101.1	0.973
9	143749	101.2	0.973
9	143892	101.3	0.973
9	144035	101.4	0.973
9	144178	101.5	0.973
9	144328	101.6	0.973
9	144478	101.7	0.973
9	144628	101.8	0.973
9	144778	101.9	0.973
9	144921	102	0.973
9	145071	102.1	0.973
9	145221	102.2	0.973
9	145364	102.3	0.973
9	145507	102.4	0.973
9	145657	102.5	0.973
9	145807	102.6	0.973
9	145957	102.7	0.973
9	146107	102.8	0.973
9	146257	102.9	0.973
9	146407	103	0.973
9	146557	103.1	0.973
9	146707	103.2	0.973
9	146851	103.3	0.973
9	146994	103.4	0.973
9	147137	103.5	0.973
9	147287	103.6	0.973
9	147437	103.7	0.973
9	147580	103.8	0.973
9	147723	103.9	0.973
9	147866	104	0.973
9	148016	104.1	0.973
9	148166	104.2	0.973
9	148309	104.3	0.973
9	148452	104.4	0.973
9	148602	104.5	0.973
9	148752	104.6	0.973
9	148896	104.7	0.973
9	149046	104.8	0.973
9	149196	104.9	0.973
9	149339	105	0.973
9	149489	105.1	0.973
9	149639	105.2	0.973
9	149782	105.3	0.973
9	149932	105.4	0.973
9	150075	105.5	0.973
9	150225	105.6	0.973
9	150375	105.7	0.973
9	150525	105.8	0.973
9	150675	105.9	0.973
9	150825	106	0.973
9	150975	106.1	0.973
9	151118	106.2	0.973
9	151268	106.3	0.973
9	151418	106.4	0.973
9	151568	106.5	0.973
9	151718	106.6	0.973
9	151868	106.7	0.973
9	152018	106.8	0.973
9	152168	106.9	0.973
9	152311	107	0.973
9	152454	107.1	0.973
9	152604	107.2	0.973
9	152754	107.3	0.973
9	152904	107.4	0.973
9	153047	107.5	0.973
9	153197	107.6	0.973
9	153341	107.7	0.973
9	153491	107.8	0.973
9	153641	107.9	0.973
9	153791	108	0.973
9	153934	108.1	0.973
9	154084	108.2	0.973
9	154227	108.3	0.973
9	154370	108.4	0.973
9	154520	108.5	0.973
9	154663	108.6	0.973
9	154813	108.7	0.973
9	154963	108.8	0.973
9	155113	108.9	0.973
9	155256	109	0.973
9	155406	109.1	0.973
9	155556	109.2	0.973
9	155700	109.3	0.973
9	155870	109.4	3.56833237888
9	156033	109.5	6.02721903104
9	156196	109.6	8.48721422976
9	156366	109.7	10.94887224832
9	156536	109.8	13.41274736
9	156699	109.9	15.87939383808
9	156862	110	18.34936595584
9	157032	110.1	1.8933863464073
9	157202	110.2	1.4808735082108
9	157372	110.3	1.4808735082108
9	157542	110.4	1.4808735082108
9	157705	110.5	1.4808735082108
9	157875	110.6	1.4808735082108
9	158038	110.7	1.4808735082108
9	158208	110.8	1.4808735082108
9	158372	110.9	1.4808735082108
9	158542	111	1.4808735082108
9	158712	111.1	1.4808735082108
9	158882	111.2	1.4808735082108
9	159045	111.3	1.4808735082108
9	159215	111.4	1.4808735082108
9	159385	111.5	1.4808735082108
9	159555	111.6	1.4808735082108
9	159725	111.7	1.4808735082108
9	159895	111.8	1.4808735082108
9	160065	111.9	1.4808735082108
9	160235	112	1.4808735082108
9	160398	112.1	1.4808735082108
9	160561	112.2	1.4808735082108
9	160731	112.3	1.4808735082108
9	160901	112.4	1.4808735082108
9	161064	112.5	1.4808735082108
9	161234	112.6	1.4808735082108
9	161404	112.7	1.4808735082108
9	161574	112.8	1.4808735082108
9	161744	112.9	1.4808735082108
9	161908	113	1.4808735082108
9	162078	113.1	1.4808735082108
9	162241	113.2	1.4808735082108
9	162411	113.3	1.4808735082108
9	162574	113.4	1.4808735082108
9	162737	113.5	1.4808735082108
9	162907	113.6	1.4808735082108
9	163077	113.7	1.4808735082108
9	163240	113.8	1.4808735082108
9	163410	113.9	1.4808735082108
9	163573	114	1.4808735082108
9	163736	114.1	1.4808735082108
9	163906	114.2	1.4808735082108
9	164076	114.3	1.4808735082108
9	164239	114.4	1.4808735082108
9	164409	114.5	1.4808735082108
9	164572	114.6	1.4808735082108
9	164742	114.7	1.4808735082108
9	164905	114.8	1.4808735082108
9	165075	114.9	1.4808735082108
9	165245	115	1.4808735082108
9	165415	115.1	1.4808735082108
9	165578	115.2	1.4808735082108
9	165748	115.3	1.4808735082108
9	165918	115.4	1.4808735082108
9	166088	115.5	1.4808735082108
9	166258	115.6	1.4808735082108
9	166421	115.7	1.4808735082108
9	166585	115.8	1.4808735082108
9	166749	115.9	1.4808735082108
9	166912	116	1.4808735082108
9	167075	116.1	1.4808735082108
9	167245	116.2	1.4808735082108
9	167408	116.3	1.4808735082108
9	167578	116.4	1.4808735082108
9	167741	116.5	1.4808735082108
9	167911	116.6	1.4808735082108
9	168074	116.7	1.4808735082108
9	168244	116.8	1.4808735082108
9	168414	116.9	1.4808735082108
9	168584	117	1.4808735082108
9	168754	117.1	1.4808735082108
9	168924	117.2	1.4808735082108
9	169094	117.3	1.4808735082108
9	169264	117.4	1.4808735082108
9	169434	117.5	1.4808735082108
9	169604	117.6	1.4808735082108
9	169774	117.7	1.4808735082108
9	169937	117.8	1.4808735082108
9	170107	117.9	1.4808735082108
9	170277	118	1.4808735082108
9	170447	118.1	1.4808735082108
9	170610	118.2	1.4808735082108
9	170773	118.3	1.4808735082108
9	170943	118.4	1.4808735082108
9	171106	118.5	1.4808735082108
9	171270	118.6	1.4808735082108
9	171440	118.7	1.4808735082108
9	171610	118.8	1.4808735082108
9	171780	118.9	1.4808735082108
9	171950	119	1.4808735082108
9	172120	119.1	1.4808735082108
9	172290	119.2	1.4808735082108
9	172460	119.3	1.4808735082108
9	172630	119.4	1.4808735082108
9	172800	119.5	1.4808735082108
9	172963	119.6	1.4808735082108
9	173133	119.7	1.4808735082108
9	173296	119.8	1.4808735082108
9	173466	119.9	1.4808735082108
9	173629	120	1.4808735082108
9	173792	120.1	1.4808735082108
9	173962	120.2	1.4808735082108
9	174132	120.3	1.4808735082108
9	174295	120.4	1.4808735082108
9	174458	120.5	1.4808735082108
9	174628	120.6	1.4808735082108
9	174798	120.7	1.4808735082108
9	174968	120.8	1.4808735082108
9	175132	120.9	1.4808735082108
9	175302	121	1.4808735082108
9	175472	121.1	1.4808735082108
9	175642	121.2	1.4808735082108
9	175812	121.3	1.4808735082108
9	175982	121.4	1.4808735082108
9	176145	121.5	1.4808735082108
9	176315	121.6	1.4808735082108
9	176485	121.7	1.4808735082108
9	176655	121.8	1.4808735082108
9	176818	121.9	1.4808735082108
9	176981	122	1.4808735082108
9	177151	122.1	1.4808735082108
9	177321	122.2	1.4808735082108
9	177484	122.3	1.4808735082108
9	177654	122.4	1.4808735082108
9	177824	122.5	1.4808735082108
9	177994	122.6	1.4808735082108
9	178164	122.7	1.4808735082108
9	178334	122.8	1.4808735082108
9	178497	122.9	1.4808735082108
9	178661	123	1.4808735082108
9	178831	123.1	0.973
9	179001	123.2	1.4686115617721
9	179171	123.3	1.4686115617721
9	179341	123.4	1.4686115617721
9	179511	123.5	1.4686115617721
9	179681	123.6	1.4686115617721
9	179851	123.7	1.4686115617721
9	180021	123.8	1.4686115617721
9	180191	123.9	1.4686115617721
9	180361	124	1.4686115617721
9	180524	124.1	1.4686115617721
9	180694	124.2	1.4686115617721
9	180857	124.3	1.4686115617721
9	181020	124.4	4.8544913790674
9	181183	124.5	1.4808735082108
9	181346	124.6	1.4808735082108
9	181516	124.7	1.4808735082108
9	181686	124.8	1.4808735082108
9	181856	124.9	1.4808735082108
9	182026	125	1.4808735082108
9	182189	125.1	1.4808735082108
9	182359	125.2	1.4808735082108
9	182529	125.3	1.4808735082108
9	182699	125.4	1.4808735082108
9	182869	125.5	1.4808735082108
9	183039	125.6	1.4808735082108
9	183209	125.7	1.4808735082108
9	183379	125.8	1.4808735082108
9	183542	125.9	1.4808735082108
9	183705	126	1.4808735082108
9	183875	126.1	1.4808735082108
9	184045	126.2	1.4808735082108
9	184215	126.3	1.4808735082108
9	184378	126.4	1.4808735082108
9	184548	126.5	1.4808735082108
9	184718	126.6	1.4808735082108
9	184888	126.7	1.4808735082108
9	185051	126.8	1.4808735082108
9	185214	126.9	1.4808735082108
9	185378	127	1.4808735082108
9	185548	127.1	1.4808735082108
9	185711	127.2	1.4808735082108
9	185881	127.3	1.4808735082108
9	186044	127.4	1.4808735082108
9	186214	127.5	1.4808735082108
9	186384	127.6	1.4808735082108
9	186554	127.7	1.4808735082108
9	186724	127.8	1.4808735082108
9	186894	127.9	1.4808735082108
9	187057	128	1.4808735082108
9	187220	128.1	1.4808735082108
9	187390	128.2	1.4808735082108
9	187553	128.3	1.4808735082108
9	187723	128.4	1.4808735082108
9	187886	128.5	1.4808735082108
9	188056	128.6	1.4808735082108
9	188226	128.7	1.4808735082108
9	188396	128.8	1.4808735082108
9	188559	128.9	1.4808735082108
9	188729	129	1.4808735082108
9	188899	129.1	1.4808735082108
9	189069	129.2	1.4808735082108
9	189239	129.3	1.4808735082108
9	189409	129.4	1.4808735082108
9	189572	129.5	1.4808735082108
9	189742	129.6	1.4808735082108
9	189912	129.7	1.4808735082108
9	190082	129.8	1.4808735082108
9	190252	129.9	1.4808735082108
9	190422	130	1.4808735082108
9	190592	130.1	1.4808735082108
9	190762	130.2	1.4808735082108
9	190925	130.3	1.4808735082108
9	191088	130.4	1.4808735082108
9	191258	130.5	1.4808735082108
9	191421	130.6	1.4808735082108
9	191591	130.7	1.4808735082108
9	191754	130.8	1.4808735082108
9	191917	130.9	1.4808735082108
9	192080	131	1.4808735082108
9	192250	131.1	1.4808735082108
9	192420	131.2	1.4808735082108
9	192583	131.3	0.973
9	192753	131.4	1.4686115617721
9	192923	131.5	1.4686115617721
9	193093	131.6	1.4686115617721
9	193263	131.7	1.4686115617721
9	193426	131.8	1.4686115617721
9	193596	131.9	1.4686115617721
9	193766	132	1.4686115617721
9	193936	132.1	1.4686115617721
9	194106	132.2	1.4686115617721
9	194276	132.3	1.4686115617721
9	194440	132.4	1.4686115617721
9	194610	132.5	1.4686115617721
9	194773	132.6	1.4686115617721
9	194937	132.7	4.8544913790674
9	195107	132.8	1.4808735082108
9	195277	132.9	1.4808735082108
9	195447	133	1.4808735082108
9	195610	133.1	1.4808735082108
9	195773	133.2	1.4808735082108
9	195936	133.3	1.4808735082108
9	196106	133.4	1.4808735082108
9	196276	133.5	1.4808735082108
9	196439	133.6	1.4808735082108
9	196602	133.7	1.4808735082108
9	196772	133.8	1.4808735082108
9	196942	133.9	1.4808735082108
9	197112	134	1.4808735082108
9	197282	134.1	1.4808735082108
9	197452	134.2	1.4808735082108
9	197622	134.3	1.4808735082108
9	197792	134.4	1.4808735082108
9	197955	134.5	1.4808735082108
9	198118	134.6	1.4808735082108
9	198288	134.7	1.4808735082108
9	198458	134.8	1.4808735082108
9	198628	134.9	1.4808735082108
9	198792	135	1.4808735082108
9	198962	135.1	1.4808735082108
9	199132	135.2	1.4808735082108
9	199302	135.3	1.4808735082108
9	199465	135.4	1.4808735082108
9	199635	135.5	1.4808735082108
9	199805	135.6	1.4808735082108
9	199975	135.7	1.4808735082108
9	200145	135.8	1.4808735082108
9	200315	135.9	1.4808735082108
9	200478	136	1.4808735082108
9	200648	136.1	1.4808735082108
9	200818	136.2	1.4808735082108
9	200988	136.3	1.4808735082108
9	201151	136.4	1.4808735082108
9	201321	136.5	1.4808735082108
9	201485	136.6	1.4808735082108
9	201655	136.7	1.4808735082108
9	201825	136.8	1.4808735082108
9	201988	136.9	1.4808735082108
9	202152	137	1.4808735082108
9	202315	137.1	1.4808735082108
9	202485	137.2	1.4808735082108
9	202655	137.3	1.4808735082108
9	202825	137.4	1.4808735082108
9	202995	137.5	1.4808735082108
9	203165	137.6	1.4808735082108
9	203328	137.7	1.4808735082108
9	203498	137.8	1.4808735082108
9	203668	137.9	1.4808735082108
9	203838	138	1.4808735082108
9	204001	138.1	1.4808735082108
9	204171	138.2	1.4808735082108
9	204341	138.3	1.4808735082108
9	204504	138.4	1.4808735082108
9	204674	138.5	1.4808735082108
9	204844	138.6	1.4808735082108
9	205007	138.7	1.4808735082108
9	205177	138.8	1.4808735082108
9	205347	138.9	1.4808735082108
9	205517	139	1.4808735082108
9	205680	139.1	1.4808735082108
9	205850	139.2	1.4808735082108
9	206013	139.3	1.4808735082108
9	206183	139.4	1.4808735082108
9	206347	139.5	1.4808735082108
9	206517	139.6	1.4808735082108
9	206687	139.7	1.4808735082108
9	206857	139.8	1.4808735082108
9	207027	139.9	1.4808735082108
9	207197	140	1.4808735082108
9	207367	140.1	1.4808735082108
9	207537	140.2	1.4808735082108
9	207707	140.3	1.4808735082108
9	207877	140.4	1.4808735082108
9	208047	140.5	1.4808735082108
9	208210	140.6	1.4808735082108
9	208380	140.7	1.4808735082108
9	208550	140.8	1.4808735082108
9	208713	140.9	1.4808735082108
9	208883	141	1.4808735082108
9	209053	141.1	1.4808735082108
9	209223	141.2	1.4808735082108
9	209386	141.3	1.4808735082108
9	209556	141.4	1.4808735082108
9	209726	141.5	1.4808735082108
9	209896	141.6	1.4808735082108
9	210066	141.7	1.4808735082108
9	210236	141.8	1.4808735082108
9	210406	141.9	1.4808735082108
9	210576	142	1.4808735082108
9	210746	142.1	1.4808735082108
9	210909	142.2	1.4808735082108
9	211079	142.3	1.4808735082108
9	211249	142.4	1.4808735082108
9	211413	142.5	1.4808735082108
9	211583	142.6	1.4808735082108
9	211747	142.7	1.4808735082108
9	211917	142.8	1.4808735082108
9	212087	142.9	1.4808735082108
9	212250	143	1.4808735082108
9	212420	143.1	1.4808735082108
9	212590	143.2	1.4808735082108
9	212760	143.3	1.4808735082108
9	212923	143.4	1.4808735082108
9	213086	143.5	1.4808735082108
9	213256	143.6	1.4808735082108
9	213426	143.7	1.4808735082108
9	213596	143.8	1.4808735082108
9	213759	143.9	1.4808735082108
9	213922	144	1.4808735082108
9	214086	144.1	1.4808735082108
9	214256	144.2	1.4808735082108
9	214419	144.3	1.4808735082108
9	214589	144.4	1.4808735082108
9	214759	144.5	1.4808735082108
9	214929	144.6	1.4808735082108
9	215099	144.7	1.4808735082108
9	215269	144.8	1.4808735082108
9	215439	144.9	1.4808735082108
9	215609	145	1.4808735082108
9	215779	145.1	1.4808735082108
9	215942	145.2	1.4808735082108
9	216112	145.3	1.4808735082108
9	216282	145.4	1.4808735082108
9	216452	145.5	1.4808735082108
9	216622	145.6	1.4808735082108
9	216786	145.7	1.4808735082108
9	216956	145.8	1.4808735082108
9	217119	145.9	1.4808735082108
9	217282	146	1.4808735082108
9	217452	146.1	1.4808735082108
9	217622	146.2	1.4808735082108
9	217792	146.3	1.4808735082108
9	217955	146.4	1.4808735082108
9	218125	146.5	1.4808735082108
9	218295	146.6	1.4808735082108
9	218465	146.7	1.4808735082108
9	218628	146.8	1.4808735082108
9	218798	146.9	1.4808735082108
9	218968	147	1.4808735082108
9	219131	147.1	1.4808735082108
9	219294	147.2	1.4808735082108
9	219464	147.3	1.4808735082108
9	219627	147.4	1.4808735082108
9	219790	147.5	1.4808735082108
9	219954	147.6	1.4808735082108
9	220124	147.7	1.4808735082108
9	220294	147.8	1.4808735082108
9	220464	147.9	1.4808735082108
9	220634	148	1.4808735082108
9	220804	148.1	1.4808735082108
9	220974	148.2	1.4808735082108
9	221144	148.3	1.4808735082108
9	221314	148.4	1.4808735082108
9	221477	148.5	1.4808735082108
9	221647	148.6	1.4808735082108
9	221817	148.7	1.4808735082108
9	221981	148.8	1.4808735082108
9	222151	148.9	1.4808735082108
9	222321	149	1.4808735082108
9	222484	149.1	1.4808735082108
9	222654	149.2	1.4808735082108
9	222818	149.3	1.4808735082108
9	222982	149.4	1.4808735082108
9	223152	149.5	1.4808735082108
9	223322	149.6	1.4808735082108
9	223492	149.7	1.4808735082108
9	223662	149.8	1.4808735082108
9	223832	149.9	1.4808735082108
9	224002	150	1.4808735082108
9	224172	150.1	1.4808735082108
9	224336	150.2	1.4808735082108
9	224499	150.3	1.4808735082108
9	224669	150.4	1.4808735082108
9	224839	150.5	1.4808735082108
9	225002	150.6	1.4808735082108
9	225165	150.7	1.4808735082108
9	225335	150.8	1.4808735082108
9	225505	150.9	1.4808735082108
9	225668	151	1.4808735082108
9	225838	151.1	1.4808735082108
9	226008	151.2	1.4808735082108
9	226172	151.3	1.4808735082108
9	226342	151.4	1.4808735082108
9	226512	151.5	1.4808735082108
9	226682	151.6	1.4808735082108
9	226852	151.7	1.4808735082108
9	227015	151.8	1.4808735082108
9	227185	151.9	1.4808735082108
9	227355	152	1.4808735082108
9	227525	152.1	1.4808735082108
9	227695	152.2	1.4808735082108
9	227865	152.3	1.4808735082108
9	228028	152.4	1.4808735082108
9	228198	152.5	1.4808735082108
9	228368	152.6	1.4808735082108
9	228538	152.7	1.4808735082108
9	228701	152.8	1.4808735082108
9	228871	152.9	1.4808735082108
9	229041	153	1.4808735082108
9	229211	153.1	1.4808735082108
9	229381	153.2	1.4808735082108
9	229551	153.3	1.4808735082108
9	229721	153.4	1.4808735082108
9	229891	153.5	1.4808735082108
9	230054	153.6	1.4808735082108
9	230224	153.7	1.4808735082108
9	230394	153.8	1.4808735082108
9	230564	153.9	1.4808735082108
9	230734	154	1.4808735082108
9	230904	154.1	1.4808735082108
9	231068	154.2	1.4808735082108
9	231238	154.3	1.4808735082108
9	231408	154.4	1.4808735082108
9	231571	154.5	1.4808735082108
9	231734	154.6	1.4808735082108
9	231897	154.7	1.4808735082108
9	232060	154.8	1.4808735082108
9	232230	154.9	1.4808735082108
9	232393	155	1.4808735082108
9	232563	155.1	1.4808735082108
9	232733	155.2	1.4808735082108
9	232896	155.3	1.4808735082108
9	233059	155.4	1.4808735082108
9	233222	155.5	1.4808735082108
9	233392	155.6	1.4808735082108
9	233556	155.7	1.4808735082108
9	233726	155.8	1.4808735082108
9	233896	155.9	1.4808735082108
9	234066	156	1.4808735082108
9	234236	156.1	1.4808735082108
9	234406	156.2	1.4808735082108
9	234569	156.3	1.4808735082108
9	234739	156.4	1.4808735082108
9	234902	156.5	1.4808735082108
9	235066	156.6	1.4808735082108
9	235236	156.7	1.4808735082108
9	235399	156.8	1.4808735082108
9	235569	156.9	1.4808735082108
9	235739	157	1.4808735082108
9	235909	157.1	1.4808735082108
9	236079	157.2	1.4808735082108
9	236249	157.3	1.4808735082108
9	236412	157.4	1.4808735082108
9	236582	157.5	1.4808735082108
9	236752	157.6	1.4808735082108
9	236922	157.7	1.4808735082108
9	237092	157.8	1.4808735082108
9	237262	157.9	1.4808735082108
9	237432	158	1.4808735082108
9	237595	158.1	1.4808735082108
9	237758	158.2	1.4808735082108
9	237928	158.3	1.4808735082108
9	238091	158.4	1.4808735082108
9	238261	158.5	1.4808735082108
9	238425	158.6	1.4808735082108
9	238595	158.7	1.4808735082108
9	238758	158.8	1.4808735082108
9	238928	158.9	1.4808735082108
9	239092	159	1.4808735082108
9	239255	159.1	1.4808735082108
9	239425	159.2	1.4808735082108
9	239595	159.3	1.4808735082108
9	239765	159.4	1.4808735082108
9	239935	159.5	1.4808735082108
9	240105	159.6	1.4808735082108
9	240268	159.7	1.4808735082108
9	240438	159.8	1.4808735082108
9	240608	159.9	1.4808735082108
9	240778	160	1.4808735082108
9	240948	160.1	1.4808735082108
9	241118	160.2	1.4808735082108
9	241288	160.3	1.4808735082108
9	241458	160.4	1.4808735082108
9	241628	160.5	1.4808735082108
9	241791	160.6	1.4808735082108
9	241961	160.7	1.4808735082108
9	242131	160.8	1.4808735082108
9	242301	160.9	1.4808735082108
9	242471	161	1.4808735082108
9	242641	161.1	1.4808735082108
9	242804	161.2	1.4808735082108
9	242974	161.3	1.4808735082108
9	243144	161.4	1.4808735082108
9	243314	161.5	1.4808735082108
9	243484	161.6	1.4808735082108
9	243654	161.7	1.4808735082108
9	243817	161.8	1.4808735082108
9	243987	161.9	1.4808735082108
9	244157	162	1.4808735082108
9	244327	162.1	1.4808735082108
9	244497	162.2	1.4808735082108
9	244667	162.3	1.4808735082108
9	244837	162.4	1.4808735082108
9	245000	162.5	1.4808735082108
9	245170	162.6	0.973
9	245340	162.7	0.973
9	245510	162.8	0.973
9	245673	162.9	0.973
9	245843	163	0.973
9	246013	163.1	0.973
9	246183	163.2	0.973
[...]
0	192753	131.4	185.96361988643
0	192923	131.5	185.90706136308
0	193093	131.6	185.9
0	193263	131.7	185.9
0	193426	131.8	185.9
0	193596	131.9	185.9
0	193766	132	185.9
0	193936	132.1	185.9
0	194106	132.2	185.9
0	194276	132.3	185.9
0	194440	132.4	185.9
0	194610	132.5	185.9
0	194773	132.6	185.9
0	194937	132.7	185.9
0	195107	132.8	185.9
0	195277	132.9	185.9
0	195447	133	185.9
0	195610	133.1	185.9
0	195773	133.2	185.9
0	195936	133.3	185.9
0	196106	133.4	185.9
0	196276	133.5	185.9
0	196439	133.6	185.9
0	196602	133.7	185.9
0	196772	133.8	185.9
0	196942	133.9	185.9
0	197112	134	185.9
0	197282	134.1	185.9
0	197452	134.2	185.89291936994
0	197622	134.3	185.83634197071
0	197792	134.4	185.77976457148
0	197955	134.5	185.72318717225
0	198118	134.6	185.66660977302
0	198288	134.7	185.6100323738
0	198458	134.8	185.55345497457
0	198628	134.9	185.35673879297
0	198792	135	185.1509082697
0	198962	135.1	184.94507774643
0	199132	135.2	184.73924722315
0	199302	135.3	184.53341669988
0	199465	135.4	184.21264362768
0	199635	135.5	183.86959275556
0	199805	135.6	183.52654188344
0	199975	135.7	183.18349101132
0	200145	135.8	182.84044013919
0	200315	135.9	182.45836859447
0	200478	136	182.06232679987
0	200648	136.1	181.66628500527
0	200818	136.2	181.27024321067
0	200988	136.3	180.87420141607
0	201151	136.4	180.47815962147
0	201321	136.5	180.07994022237
0	201485	136.6	179.67994022237
0	201655	136.7	179.27994022237
0	201825	136.8	178.87994022237
0	201988	136.9	178.47994022237
0	202152	137	178.07994022237
0	202315	137.1	177.67994022237
0	202485	137.2	177.27994022237
0	202655	137.3	176.87994022237
0	202825	137.4	176.47994022237
0	202995	137.5	176.07994022237
0	203165	137.6	175.67994022237
0	203328	137.7	175.27994022237
0	203498	137.8	174.87994022237
0	203668	137.9	174.47994022237
0	203838	138	174.07994022237
0	204001	138.1	173.67994022237
0	204171	138.2	173.27994022237
0	204341	138.3	172.87994022237
0	204504	138.4	172.47994022237
0	204674	138.5	172.07994022237
0	204844	138.6	171.67994022237
0	205007	138.7	171.27994022237
0	205177	138.8	170.87994022237
0	205347	138.9	170.47994022237
0	205517	139	170.07994022237
0	205680	139.1	169.67994022237
0	205850	139.2	169.27994022237
0	206013	139.3	168.87994022237
0	206183	139.4	168.47994022237
0	206347	139.5	168.07994022237
0	206517	139.6	167.67994022237
0	206687	139.7	167.27994022237
0	206857	139.8	166.87994022237
0	207027	139.9	166.47994022237
0	207197	140	166.07994022237
0	207367	140.1	165.67994022237
0	207537	140.2	165.27994022237
0	207707	140.3	164.87994022237
0	207877	140.4	164.47994022237
0	208047	140.5	164.07994022237
0	208210	140.6	163.67994022237
0	208380	140.7	163.27994022237
0	208550	140.8	162.87994022237
0	208713	140.9	162.47994022237
0	208883	141	162.07994022237
0	209053	141.1	161.67994022237
0	209223	141.2	161.27994022237
0	209386	141.3	160.87994022237
0	209556	141.4	160.47994022237
0	209726	141.5	160.07994022237
0	209896	141.6	159.67994022237
0	210066	141.7	159.27994022237
0	210236	141.8	158.87994022237
0	210406	141.9	158.47994022237
0	210576	142	158.07994022237
0	210746	142.1	157.67994022237
0	210909	142.2	157.27994022237
0	211079	142.3	156.87994022237
0	211249	142.4	156.47994022237
0	211413	142.5	156.07994022237
0	211583	142.6	155.67994022237
0	211747	142.7	155.27994022237
0	211917	142.8	154.87994022237
0	212087	142.9	154.47994022237
0	212250	143	154.07994022237
0	212420	143.1	153.67994022237
0	212590	143.2	153.27994022237
0	212760	143.3	152.87994022237
0	212923	143.4	152.47994022237
0	213086	143.5	152.07994022237
0	213256	143.6	151.67994022237
0	213426	143.7	151.27994022237
0	213596	143.8	150.87994022237
0	213759	143.9	150.47994022237
0	213922	144	150.07994022237
0	214086	144.1	149.67994022237
0	214256	144.2	149.27994022237
0	214419	144.3	148.87994022237
0	214589	144.4	148.47994022237
0	214759	144.5	148.07994022237
0	214929	144.6	147.67994022237
0	215099	144.7	147.27994022237
0	215269	144.8	146.87994022237
0	215439	144.9	146.47994022237
0	215609	145	146.07994022237
0	215779	145.1	145.67994022237
0	215942	145.2	145.27994022237
0	216112	145.3	144.87994022237
0	216282	145.4	144.47994022237
0	216452	145.5	144.07994022237
0	216622	145.6	143.67994022237
0	216786	145.7	143.27994022237
0	216956	145.8	142.87994022237
0	217119	145.9	142.48226104882
0	217282	146	142.08647958703
0	217452	146.1	141.69069812523
0	217622	146.2	141.29491666344
0	217792	146.3	140.89913520165
0	217955	146.4	140.50335373986
0	218125	146.5	140.10757227806
0	218295	146.6	139.71288481763
0	218465	146.7	139.36984738871
0	218628	146.8	139.02680995979
0	218798	146.9	138.68377253087
0	218968	147	138.34073510195
0	219131	147.1	137.99769767304
0	219294	147.2	137.65466024412
0	219464	147.3	137.4268467677
0	219627	147.4	137.22087333171
0	219790	147.5	137.01489989571
0	219954	147.6	136.80892645971
0	220124	147.7	136.60295302372
0	220294	147.8	136.39697958772
0	220464	147.9	136.284934402
0	220634	148	136.22894272642
0	220804	148.1	136.17295105084
0	220974	148.2	136.11695937526
0	221144	148.3	136.06096769967
0	221314	148.4	136.00497602409
0	221477	148.5	135.94898434851
0	221647	148.6	135.9
0	221817	148.7	135.85050506729
0	221981	148.8	135.79394908929
0	222151	148.9	135.73739311128
0	222321	149	135.68083713328
0	222484	149.1	135.62428115527
0	222654	149.2	135.56772517727
0	222818	149.3	135.4087322121
0	222982	149.4	135.20297961998
0	223152	149.5	134.99722702786
0	223322	149.6	134.79147443574
0	223492	149.7	134.58572184362
0	223662	149.8	134.29994871154
0	223832	149.9	133.95675369106
0	224002	150	133.61355867059
0	224172	150.1	133.27036365012
0	224336	150.2	132.92716862964
0	224499	150.3	132.55832758311
0	224669	150.4	132.16211937362
0	224839	150.5	131.76591116414
0	225002	150.6	131.36970295465
0	225165	150.7	130.97349474516
0	225335	150.8	130.57728653567
0	225505	150.9	130.17994022237
0	225668	151	129.77994022237
0	225838	151.1	129.37994022237
0	226008	151.2	128.97994022237
0	226172	151.3	128.57994022237
0	226342	151.4	128.17994022237
0	226512	151.5	127.77994022237
0	226682	151.6	127.37994022237
0	226852	151.7	126.97994022237
0	227015	151.8	126.57994022237
0	227185	151.9	126.17994022237
0	227355	152	125.77994022237
0	227525	152.1	125.37994022237
0	227695	152.2	124.97994022237
0	227865	152.3	124.57994022237
0	228028	152.4	124.17994022237
0	228198	152.5	123.77994022237
0	228368	152.6	123.37994022237
0	228538	152.7	122.97994022237
0	228701	152.8	122.57994022237
0	228871	152.9	122.17994022237
0	229041	153	121.77994022237
0	229211	153.1	121.37994022237
0	229381	153.2	120.97994022237
0	229551	153.3	120.57994022237
0	229721	153.4	120.17994022237
0	229891	153.5	119.77994022237
0	230054	153.6	119.37994022237
0	230224	153.7	118.97994022237
0	230394	153.8	118.57994022237
0	230564	153.9	118.17994022237
0	230734	154	117.77994022237
0	230904	154.1	117.37994022237
0	231068	154.2	116.97994022237
0	231238	154.3	116.57994022237
0	231408	154.4	116.17994022237
0	231571	154.5	115.77994022237
0	231734	154.6	115.37994022237
0	231897	154.7	114.97994022237
0	232060	154.8	114.57994022237
0	232230	154.9	114.17994022237
0	232393	155	113.77994022237
0	232563	155.1	113.37994022237
0	232733	155.2	112.97994022237
0	232896	155.3	112.57994022237
0	233059	155.4	112.17994022237
0	233222	155.5	111.77994022237
0	233392	155.6	111.37994022237
0	233556	155.7	110.97994022237
0	233726	155.8	110.57994022237
0	233896	155.9	110.17994022237
0	234066	156	109.77994022237
0	234236	156.1	109.37994022237
0	234406	156.2	108.97994022237
0	234569	156.3	108.57994022237
0	234739	156.4	108.17994022237
0	234902	156.5	107.77994022237
0	235066	156.6	107.37994022237
0	235236	156.7	106.97994022237
0	235399	156.8	106.57994022237
0	235569	156.9	106.17994022237
0	235739	157	105.77994022237
0	235909	157.1	105.37994022237
0	236079	157.2	104.97994022237
0	236249	157.3	104.57994022237
0	236412	157.4	104.17994022237
0	236582	157.5	103.77994022237
0	236752	157.6	103.37994022237
0	236922	157.7	102.97994022237
0	237092	157.8	102.57994022237
0	237262	157.9	102.17994022237
0	237432	158	101.77994022237
0	237595	158.1	101.37994022237
0	237758	158.2	100.97994022237
0	237928	158.3	100.57994022237
0	238091	158.4	100.17994022237
0	238261	158.5	99.779940222371
0	238425	158.6	99.379940222371
0	238595	158.7	98.979940222371
0	238758	158.8	98.579940222371
0	238928	158.9	98.179940222371
0	239092	159	97.779940222371
0	239255	159.1	97.379940222371
0	239425	159.2	96.979940222371
0	239595	159.3	96.579940222371
0	239765	159.4	96.179940222371
0	239935	159.5	95.779940222371
0	240105	159.6	95.379940222371
0	240268	159.7	94.979940222371
0	240438	159.8	94.579940222371
0	240608	159.9	94.179940222371
0	240778	160	93.779940222371
0	240948	160.1	93.379940222371
0	241118	160.2	92.979940222371
0	241288	160.3	92.579940222371
0	241458	160.4	92.179940222371
0	241628	160.5	91.779940222371
0	241791	160.6	91.379940222371
0	241961	160.7	90.979940222371
0	242131	160.8	90.579940222371
0	242301	160.9	90.179940222371
0	242471	161	89.779940222371
0	242641	161.1	89.379940222371
0	242804	161.2	88.979940222371
0	242974	161.3	88.579940222371
0	243144	161.4	88.179940222371
0	243314	161.5	87.779940222371
0	243484	161.6	87.379940222371
0	243654	161.7	86.979940222371
0	243817	161.8	86.579940222371
0	243987	161.9	86.179940222371
0	244157	162	85.779940222371
0	244327	162.1	85.379940222371
0	244497	162.2	84.979940222371
0	244667	162.3	84.579940222371
0	244837	162.4	84.179940222371
0	245000	162.5	83.779940222371
0	245170	162.6	83.379940222371
0	245340	162.7	82.979940222371
0	245510	162.8	82.579940222371
0	245673	162.9	82.179940222371
0	245843	163	81.779940222371
0	246013	163.1	81.379940222371
0	246183	163.2	80.979940222371
0	246353	163.3	80.579940222371
0	246523	163.4	80.179940222371
0	246693	163.5	79.779940222371
0	246857	163.6	79.379940222371
0	247027	163.7	78.979940222371
0	247197	163.8	78.579940222371
0	247360	163.9	78.179940222371
0	247530	164	77.779940222371
0	247700	164.1	77.379940222371
0	247870	164.2	76.979940222371
0	248040	164.3	76.579940222371
0	248210	164.4	76.179940222371
0	248373	164.5	75.779940222371
0	248543	164.6	75.379940222371
0	248713	164.7	74.979940222371
0	248876	164.8	74.579940222371
0	249046	164.9	74.179940222371
0	249216	165	73.779940222371
0	249386	165.1	73.379940222371
0	249556	165.2	72.979940222371
0	249719	165.3	72.579940222371
0	249889	165.4	72.179940222371
0	250059	165.5	71.779940222371
0	250223	165.6	71.379940222371
0	250386	165.7	70.979940222371
0	250556	165.8	70.579940222371
0	250726	165.9	70.179940222371
0	250896	166	69.779940222371
0	251066	166.1	69.383107378221
0	251236	166.2	68.987065583621
0	251399	166.3	68.59102378902
0	251563	166.4	68.19498199442
0	251733	166.5	67.798940199819
0	251896	166.6	67.402898405219
0	252066	166.7	67.006856610618
0	252236	166.8	66.610814816018
0	252406	166.9	66.214773021417
0	252576	167	65.822915030543
0	252746	167.1	65.479864158421
0	252909	167.2	65.1368132863
0	253079	167.3	64.793762414179
0	253249	167.4	64.450711542058
0	253419	167.5	64.107660669937
0	253589	167.6	63.764609797815
0	253759	167.7	63.421558925694
0	253929	167.8	63.087104832144
0	254099	167.9	62.881274308871
0	254269	168	62.675443785598
0	254439	168.1	62.469613262326
0	254609	168.2	62.263782739053
0	254779	168.3	62.05795221578
0	254942	168.4	61.852121692508
0	255112	168.5	61.646291169235
0	255275	168.6	61.44737788238
0	255445	168.7	61.390800483151
0	255615	168.8	61.334223083923
0	255785	168.9	61.277645684694
0	255948	169	61.221068285466
0	256118	169.1	61.164490886237
0	256288	169.2	61.107913487008
0	256458	169.3	61.05133608778
0	256621	169.4	60.994758688551
0	256791	169.5	60.938181289322
0	256961	169.6	60.9
0	257131	169.7	60.9
0	257301	169.8	60.9
0	257471	169.9	60.9
0	257641	170	60.9
0	257811	170.1	60.9
0	257981	170.2	60.9
0	258151	170.3	60.9
0	258321	170.4	60.9
0	258491	170.5	60.9
0	258654	170.6	60.9
0	258824	170.7	60.9
0	258994	170.8	60.9
0	259157	170.9	60.9
0	259327	171	60.9
0	259490	171.1	60.9
0	259653	171.2	60.9
0	259823	171.3	60.9
0	259986	171.4	60.9
0	260156	171.5	60.9
0	260320	171.6	60.9
0	260490	171.7	60.9
0	260660	171.8	60.9
0	260823	171.9	60.9
0	260993	172	60.9
0	261163	172.1	60.9
0	261333	172.2	60.9
0	261503	172.3	60.9
0	261673	172.4	60.9
0	261843	172.5	60.9
0	262013	172.6	60.9
0	262176	172.7	60.9
0	262346	172.8	60.9
0	262516	172.9	60.9
0	262686	173	60.9
0	262856	173.1	60.9
0	263026	173.2	60.9
0	263196	173.3	60.9
0	263366	173.4	60.9
0	263536	173.5	60.9
0	263699	173.6	60.9
0	263862	173.7	60.9
0	264025	173.8	60.9
0	264195	173.9	60.9
0	264365	174	60.9
0	264535	174.1	60.9
0	264705	174.2	60.9
0	264869	174.3	60.9
0	265039	174.4	60.9
0	265203	174.5	60.9
0	265373	174.6	60.9
0	265543	174.7	60.9
0	265713	174.8	60.9
0	265883	174.9	60.9
0	266053	175	60.9
0	266223	175.1	60.9
0	266393	175.2	60.9
0	266563	175.3	60.9
0	266727	175.4	60.9
0	266897	175.5	60.9
0	267067	175.6	60.9
0	267237	175.7	60.9
0	267407	175.8	60.9
0	267577	175.9	60.9
0	267740	176	60.9
0	267910	176.1	60.9
0	268073	176.2	60.9
0	268243	176.3	60.9
0	268413	176.4	60.9
0	268583	176.5	60.9
0	268746	176.6	60.9
0	268909	176.7	60.9
0	269072	176.8	60.9
0	269235	176.9	60.9
0	269405	177	60.9
0	269568	177.1	60.9
0	269731	177.2	60.9
0	269901	177.3	60.9
0	270071	177.4	60.9
0	270234	177.5	60.9
0	270404	177.6	60.9
0	270567	177.7	60.9
0	270737	177.8	60.9
0	270907	177.9	60.9
0	271077	178	60.9
0	271247	178.1	60.9
0	271417	178.2	60.9
0	271587	178.3	60.9
0	271757	178.4	60.9
0	271927	178.5	60.9
0	272097	178.6	60.9
0	272267	178.7	60.9
0	272430	178.8	60.9
0	272593	178.9	60.9
0	272763	179	60.9
0	272933	179.1	60.9
0	273096	179.2	60.9
0	273259	179.3	60.9
0	273429	179.4	60.9
0	273599	179.5	60.9
0	273769	179.6	60.9
0	273933	179.7	60.9
0	274103	179.8	60.9
0	274266	179.9	60.9
0	274436	180	60.9
0	274599	180.1	60.9
0	274762	180.2	60.9
0	274926	180.3	60.9
0	275096	180.4	60.9
0	275266	180.5	60.9
0	275436	180.6	60.9
0	275606	180.7	60.9
0	275769	180.8	60.9
0	275939	180.9	60.9
0	276109	181	60.9
0	276279	181.1	60.9
0	276449	181.2	60.9
0	276619	181.3	60.9
0	276789	181.4	60.9
0	276959	181.5	60.9
0	277122	181.6	60.9
0	277292	181.7	60.9
0	277462	181.8	60.9
0	277632	181.9	60.9
0	277795	182	60.9
0	277958	182.1	60.9
0	278128	182.2	60.9
0	278298	182.3	60.9
0	278468	182.4	60.9
0	278631	182.5	60.9
0	278801	182.6	60.9
0	278971	182.7	60.9
0	279141	182.8	60.9
0	279304	182.9	60.9
0	279474	183	60.9
0	279644	183.1	60.9
0	279814	183.2	60.9
0	279984	183.3	60.9
0	280154	183.4	60.9
0	280318	183.5	60.9
0	280488	183.6	60.9
0	280658	183.7	60.9
0	280828	183.8	60.9
0	280992	183.9	60.9
0	281162	184	60.9
0	281332	184.1	60.9
0	281502	184.2	60.9
0	281666	184.3	60.9
0	281836	184.4	60.9
0	282006	184.5	60.9
0	282176	184.6	60.9
0	282346	184.7	60.9
0	282516	184.8	60.9
0	282685	184.9	60.9
0	282835	185	60.9
0	282985	185.1	60.9
0	283135	185.2	60.9
0	283285	185.3	60.9
0	283435	185.4	60.9
0	283585	185.5	60.9
0	283735	185.6	60.9
0	283878	185.7	60.9
0	284028	185.8	60.9
0	284178	185.9	60.9
0	284322	186	60.9
0	284465	186.1	60.9
0	284615	186.2	60.9
0	284765	186.3	60.9
0	284915	186.4	60.9
0	285059	186.5	60.9
0	285202	186.6	60.9
0	285345	186.7	60.9
0	285495	186.8	60.9
0	285645	186.9	60.9
0	285788	187	60.9
0	285938	187.1	60.9
0	286081	187.2	60.9
0	286224	187.3	60.9
0	286374	187.4	60.9
0	286517	187.5	60.9
0	286667	187.6	60.9
0	286817	187.7	60.9
0	286967	187.8	60.9
0	287117	187.9	60.9
0	287261	188	60.9
0	287411	188.1	60.9
0	287561	188.2	60.9
0	287711	188.3	60.9
0	287854	188.4	60.9
0	288004	188.5	60.9
0	288154	188.6	60.9
0	288304	188.7	60.9
0	288454	188.8	60.9
0	288604	188.9	60.9
0	288747	189	60.9
0	288890	189.1	60.9
0	289040	189.2	60.9
0	289190	189.3	60.9
0	289340	189.4	60.9
0	289483	189.5	60.9
0	289633	189.6	60.9
0	289783	189.7	60.9
0	289933	189.8	60.9
0	290076	189.9	60.9
0	290226	190	60.9
0	290369	190.1	60.9
0	290519	190.2	60.9
0	290669	190.3	60.9
0	290819	190.4	60.9
0	290962	190.5	60.9
0	291105	190.6	60.9
0	291255	190.7	60.9
0	291405	190.8	60.9
0	291555	190.9	60.9
0	291705	191	60.9
0	291849	191.1	60.9
0	291992	191.2	60.9
0	292136	191.3	60.9
0	292280	191.4	60.9
0	292430	191.5	60.9
0	292580	191.6	60.9
0	292723	191.7	60.9
0	292873	191.8	60.9
0	293016	191.9	60.9
0	293166	192	60.9
0	293309	192.1	60.9
0	293459	192.2	60.9
0	293534	192.3	60.9
0	293596	192.4	60.9
0	293658	192.5	60.9
0	293716	192.6	60.9
0	293778	192.7	60.9
0	293840	192.8	60.9
0	293902	192.9	60.9
0	293964	193	60.9
0	294026	193.1	60.9
0	294088	193.2	60.9
0	294150	193.3	60.9
0	294212	193.4	60.9
0	294274	193.5	60.9
0	294336	193.6	60.9
0	294398	193.7	60.9
0	294456	193.8	60.9
0	294518	193.9	60.9
0	294580	194	60.9
0	294638	194.1	60.9
0	294700	194.2	60.9
0	294762	194.3	60.9
0	294820	194.4	60.9
0	294882	194.5	60.9
0	294944	194.6	60.9
0	295006	194.7	60.9
0	295064	194.8	60.9
0	295122	194.9	60.9
0	295184	195	60.9
0	295242	195.1	60.9
0	295304	195.2	60.9
0	295366	195.3	60.9
0	295428	195.4	60.9
0	295490	195.5	60.9
0	295548	195.6	60.9
0	295606	195.7	60.9
0	295664	195.8	60.9
0	295726	195.9	60.9
0	295788	196	60.9
0	295850	196.1	60.9
0	295912	196.2	60.9
0	295974	196.3	60.9
0	296036	196.4	60.9
0	296094	196.5	60.9
0	296156	196.6	60.9
0	296214	196.7	60.9
0	296276	196.8	60.9
0	296338	196.9	60.9
0	296400	197	60.9
0	296458	197.1	60.9
0	296520	197.2	60.9
0	296578	197.3	60.853332866191
0	296640	197.4	60.796776888187
0	296702	197.5	60.740220910183
0	296760	197.6	60.683664932179
0	296822	197.7	60.627108954175
0	296884	197.8	60.570552976171
0	296946	197.9	60.419019841708
0	297004	198	60.213267249586
0	297066	198.1	60.007514657465
0	297128	198.2	59.801762065344
0	297186	198.3	59.596009473222
0	297248	198.4	59.317094801835
0	297310	198.5	58.973913442089
0	297372	198.6	58.630718421615
0	297434	198.7	58.287523401141
0	297492	198.8	57.944328380668
0	297554	198.9	57.578137993586
0	297616	199	57.181929784098
0	297674	199.1	56.785721574611
0	297732	199.2	56.389513365123
0	297794	199.3	55.993305155635
0	297856	199.4	55.597096946148
0	297918	199.5	55.199940222371
0	297980	199.6	54.799940222371
0	298028	199.7	54.399940222371
0	298076	199.8	53.999940222371
0	298124	199.9	53.599940222371
0	298172	200	53.199940222371
0	298220	200.1	52.799940222371
0	298268	200.2	52.399940222371
0	298316	200.3	51.999940222371
0	298364	200.4	51.599940222371
0	298412	200.5	51.199940222371
0	298460	200.6	50.799940222371
0	298508	200.7	50.399940222371
0	298556	200.8	49.999940222371
0	298604	200.9	49.599940222371
0	298652	201	49.199940222371
0	298700	201.1	48.799940222371
0	298748	201.2	48.399940222371
0	298796	201.3	47.999940222371
0	298844	201.4	47.599940222371
0	298892	201.5	47.199940222371
0	298940	201.6	46.799940222371
0	298988	201.7	46.399940222371
0	299036	201.8	45.999940222371
0	299084	201.9	45.599940222371
0	299132	202	45.199940222371
0	299180	202.1	44.799940222371
0	299228	202.2	44.399940222371
0	299276	202.3	43.999940222371
0	299324	202.4	43.599940222371
0	299372	202.5	43.199940222371
0	299420	202.6	42.799940222371
0	299468	202.7	42.399940222371
0	299516	202.8	41.999940222371
0	299564	202.9	41.599940222371
0	299612	203	41.199940222371
0	299660	203.1	40.799940222371
0	299708	203.2	40.399940222371
0	299756	203.3	39.999940222371
0	299804	203.4	39.599940222371
0	299852	203.5	39.199940222371
0	299900	203.6	38.799940222371
0	299948	203.7	38.399940222371
0	299996	203.8	37.999940222371
0	300044	203.9	37.599940222371
0	300092	204	37.199940222371
0	300140	204.1	36.799940222371
0	300188	204.2	36.399940222371
0	300236	204.3	35.999940222371
0	300284	204.4	35.599940222371
0	300332	204.5	35.199940222371
0	300380	204.6	34.799940222371
0	300428	204.7	34.399940222371
0	300476	204.8	33.999940222371
0	300524	204.9	33.599940222371
0	300572	205	33.199940222371
0	300620	205.1	32.799940222371
0	300668	205.2	32.399940222371
0	300716	205.3	31.999940222371
0	300764	205.4	31.599940222371
0	300812	205.5	31.199940222371
0	300860	205.6	30.799940222371
0	300908	205.7	30.399940222371
0	300956	205.8	29.999940222371
0	301004	205.9	29.599940222371
0	301052	206	29.199940222371
0	301100	206.1	28.799940222371
0	301148	206.2	28.399940222371
0	301196	206.3	27.999940222371
0	301244	206.4	27.599940222371
0	301292	206.5	27.199940222371
0	301340	206.6	26.799940222371
0	301388	206.7	26.399940222371
0	301436	206.8	25.999940222371
0	301484	206.9	25.599940222371
0	301532	207	25.199940222371

