version 3
run General-0-20230709-22:14:11-19672
attr configname General
attr datetime 20230709-22:14:11
attr datetimef 20230709-221411
attr experiment General
attr inifile omnetpp.ini
attr iterationvars ""
attr iterationvarsd ""
attr iterationvarsf ""
attr measurement ""
attr network myHospitalNetwork
attr processid 19672
attr repetition 0
attr replication #0
attr resultdir results
attr runnumber 0
attr seedset 0
config image-path ../../../../../Documents/inet/images:../../../../../Documents/veins/images
config cmdenv-express-mode true
config cmdenv-autoflush true
config cmdenv-status-frequency 0.1s
config **.cmdenv-log-level info
config ned-path .
config image-path ../../images
config network myHospitalNetwork
config debug-on-errors true
config print-undisposed false
config sim-time-limit 3600s
config **.scalar-recording true
config **.vector-recording true
config *.playgroundSizeX 2500m
config *.playgroundSizeY 2500m
config *.playgroundSizeZ 50m
config *.annotations.draw true
config *.manager.updateInterval 0.1s
config *.manager.host "\"localhost\""
config *.manager.port 9999
config *.manager.autoShutdown true
config *.manager.launchConfig "xmldoc(\"vd013.launchd.xml\")"
config *.manager.moduleType "\"agv=org.car2x.veins.nodes.Car pedestrian=lab001.veins_inet.IPerson\""
config *.manager.moduleName "\"agv=node pedestrian=personNode\""
config *.manager.moduleDisplayString "\"agv='i=veins/node/car;is=vs' pedestrian='i=veins/node/pedestrian;is=vs'\""
config *.rsu[0].mobility.x 300
config *.rsu[0].mobility.y 300
config *.rsu[0].mobility.z 3
config *.rsu[*].applType "\"HospitalControlApp\""
config *.rsu[*].appl.headerLength "80 bit"
config *.rsu[*].appl.sendBeacons false
config *.rsu[*].appl.dataOnSch false
config *.rsu[*].nic.phy80211p.antennaOffsetZ "0 m"
config *.connectionManager.sendDirect true
config *.connectionManager.maxInterfDist 2600m
config *.connectionManager.drawMaxIntfDist false
config *.**.nic.mac1609_4.useServiceChannel true
config *.**.nic.mac1609_4.txPower 20mW
config *.**.nic.mac1609_4.bitrate 6Mbps
config *.**.nic.phy80211p.minPowerLevel -110dBm
config *.**.nic.phy80211p.useNoiseFloor true
config *.**.nic.phy80211p.noiseFloor -98dBm
config *.**.nic.phy80211p.decider "xmldoc(\"config.xml\")"
config *.**.nic.phy80211p.analogueModels "xmldoc(\"config.xml\")"
config *.**.nic.phy80211p.usePropagationDelay true
config *.**.nic.phy80211p.antenna "xmldoc(\"antenna.xml\", \"/root/Antenna[@id='monopole']\")"
config *.node[*].nic.phy80211p.antennaOffsetY "0 m"
config *.node[*].nic.phy80211p.antennaOffsetZ "1.895 m"
config *.node[*].applType "\"AGVControlApp\""
config *.node[*].appl.headerLength "80 bit"
config *.node[*].appl.sendBeacons false
config *.node[*].appl.dataOnSch true
config *.node[*].appl.beaconInterval 0.1s
config *.node[*].veinsmobility.x 0
config *.node[*].veinsmobility.y 0
config *.node[*].veinsmobility.z 0
config *.node[*].veinsmobility.setHostSpeed false
config *.node[*0].veinsmobility.accidentCount 0

vector 0 myHospitalNetwork.node[0].veinsmobility posx ETV
vector 1 myHospitalNetwork.node[0].veinsmobility posy ETV
vector 2 myHospitalNetwork.node[0].veinsmobility speed ETV
vector 3 myHospitalNetwork.node[0].veinsmobility acceleration ETV
vector 4 myHospitalNetwork.node[0].veinsmobility co2emission ETV
vector 5 myHospitalNetwork.node[1].veinsmobility posx ETV
vector 6 myHospitalNetwork.node[1].veinsmobility posy ETV
vector 7 myHospitalNetwork.node[1].veinsmobility speed ETV
vector 8 myHospitalNetwork.node[1].veinsmobility acceleration ETV
vector 9 myHospitalNetwork.node[1].veinsmobility co2emission ETV
0	3	0.1	548.755
0	8	0.2	548.61
0	70	0.3	548.365
0	132	0.4	548.02
0	194	0.5	547.575
0	256	0.6	547.03
0	314	0.7	546.385
0	376	0.8	545.64
0	434	0.9	544.795
0	515	1	543.85
0	647	1.1	542.805
0	817	1.2	541.66
0	981	1.3	540.415
0	1151	1.4	539.07
0	1321	1.5	537.625
0	1465	1.6	536.08978372
0	1608	1.7	534.53924302
0	1752	1.8	532.98870232
0	1915	1.9	531.44111144052
0	2085	2	529.9653198431
0	2255	2.1	528.58952824568
0	2425	2.2	527.31373664826
0	2595	2.3	526.13794505084
0	2765	2.4	525.06215345342
0	2914	2.5	524.084361856
0	3044	2.6	523.07857025858
0	3174	2.7	521.97277866116
0	3304	2.8	520.76698706374
0	3455	2.9	519.46119546632
0	3625	3	518.0554038689
0	3775	3.1	516.54963736123
0	3925	3.2	514.99909666123
0	4075	3.3	513.44855596123
0	4218	3.4	511.89801526123
0	4368	3.5	510.34747456123
0	4518	3.6	508.79693386123
0	4667	3.7	507.24639316123
0	4797	3.8	505.69585246123
0	4927	3.9	504.14531176123
0	5051	4	502.59477106123
1	3	0.1	210.9
1	8	0.2	210.9
1	70	0.3	210.9
1	132	0.4	210.9
1	194	0.5	210.9
1	256	0.6	210.9
1	314	0.7	210.9
1	376	0.8	210.9
1	434	0.9	210.9
1	515	1	210.9
1	647	1.1	210.9
1	817	1.2	210.9
1	981	1.3	210.9
1	1151	1.4	210.9
1	1321	1.5	210.9
1	1465	1.6	210.9
1	1608	1.7	210.9
1	1752	1.8	210.9
1	1915	1.9	210.9
1	2085	2	210.9
1	2255	2.1	210.9
1	2425	2.2	210.9
1	2595	2.3	210.9
1	2765	2.4	210.9
1	2914	2.5	210.9
1	3044	2.6	210.9
1	3174	2.7	210.9
1	3304	2.8	210.9
1	3455	2.9	210.9
1	3625	3	210.9
1	3775	3.1	210.9
1	3925	3.2	210.9
1	4075	3.3	210.9
1	4218	3.4	210.9
1	4368	3.5	210.9
1	4518	3.6	210.9
1	4667	3.7	210.9
1	4797	3.8	210.9
1	4927	3.9	210.9
1	5051	4	210.9
2	8	0.2	1.9
2	70	0.3	2.9
2	132	0.4	3.9
2	194	0.5	4.9
2	256	0.6	5.9
2	314	0.7	6.9
2	376	0.8	7.9
2	434	0.9	8.9
2	515	1	9.9
2	647	1.1	10.9
2	817	1.2	11.9
2	981	1.3	12.9
2	1151	1.4	13.9
2	1321	1.5	14.9
2	1465	1.6	15.505407
2	1608	1.7	15.505407
2	1752	1.8	15.505407
2	1915	1.9	15.307915974194
2	2085	2	14.307915974194
2	2255	2.1	13.307915974194
2	2425	2.2	12.307915974194
2	2595	2.3	11.307915974194
2	2765	2.4	10.307915974194
2	2914	2.5	9.5079159741936
2	3044	2.6	10.507915974194
2	3174	2.7	11.507915974194
2	3304	2.8	12.507915974194
2	3455	2.9	13.507915974194
2	3625	3	14.507915974194
2	3775	3.1	15.505407
2	3925	3.2	15.505407
2	4075	3.3	15.505407
2	4218	3.4	15.505407
2	4368	3.5	15.505407
2	4518	3.6	15.505407
2	4667	3.7	15.505407
2	4797	3.8	15.505407
2	4927	3.9	15.505407
2	5051	4	15.505407
3	70	0.3	10
3	132	0.4	10
3	194	0.5	10
3	256	0.6	10
3	314	0.7	10
3	376	0.8	10
3	434	0.9	10
3	515	1	10
3	647	1.1	10
3	817	1.2	10
3	981	1.3	10
3	1151	1.4	10
3	1321	1.5	10
3	1465	1.6	6.0540700000004
3	1608	1.7	0
3	1752	1.8	0
3	1915	1.9	-1.9749102580644
3	2085	2	-9.9999999999999
3	2255	2.1	-10
3	2425	2.2	-10
3	2595	2.3	-10
3	2765	2.4	-10
3	2914	2.5	-8
3	3044	2.6	10
3	3174	2.7	10
3	3304	2.8	10
3	3455	2.9	10
3	3625	3	10
3	3775	3.1	9.9749102580643
3	3925	3.2	0
3	4075	3.3	0
3	4218	3.4	0
3	4368	3.5	0
3	4518	3.6	0
3	4667	3.7	0
3	4797	3.8	0
3	4927	3.9	0
3	5051	4	0
4	70	0.3	8.2411490285043
4	132	0.4	10.702615822783
4	194	0.5	13.166244282853
4	256	0.6	15.632588681995
4	314	0.7	18.10220329349
4	376	0.8	20.575642390616
4	434	0.9	23.053460246655
4	515	1	25.536211134885
4	647	1.1	28.024449328587
4	817	1.2	30.518729101042
4	981	1.3	33.019604725528
4	1151	1.4	35.527630475327
4	1321	1.5	38.043360623717
4	1465	1.6	24.82521583525
4	1608	1.7	2.2023483703342
4	1752	1.8	2.2023483703342
4	1915	1.9	0.973
4	2085	2	0.973
4	2255	2.1	0.973
4	2425	2.2	0.973
4	2595	2.3	0.973
4	2765	2.4	0.973
4	2914	2.5	0.973
4	3044	2.6	27.048161514917
4	3174	2.7	29.540006424186
4	3304	2.8	32.038229863788
4	3455	2.9	34.543386107003
4	3625	3	37.056029427111
4	3775	3.1	39.476623815217
4	3925	3.2	2.2023483703342
4	4075	3.3	2.2023483703342
4	4218	3.4	2.2023483703342
4	4368	3.5	2.2023483703342
4	4518	3.6	2.2023483703342
4	4667	3.7	2.2023483703342
4	4797	3.8	2.2023483703342
4	4927	3.9	2.2023483703342
4	5051	4	2.2023483703342
5	434	0.9	548.79
5	515	1	548.695
5	647	1.1	548.5
5	817	1.2	548.205
5	981	1.3	547.81
5	1151	1.4	547.315
5	1321	1.5	546.72
5	1465	1.6	546.025
5	1608	1.7	545.23
5	1752	1.8	544.335
5	1915	1.9	543.34
5	2085	2	542.245
5	2255	2.1	541.08903579101
5	2425	2.2	539.98010872371
5	2595	2.3	538.9234125885
5	2765	2.4	537.91772849906
5	2914	2.5	536.96180313605
5	3044	2.6	535.9995893797
5	3174	2.7	534.98173278547
5	3304	2.8	533.89509818044
5	3455	2.9	532.8593552281
5	3625	3	531.91161227577
5	3775	3.1	530.90586932344
5	3925	3.2	529.8001263711
5	4075	3.3	528.59438341877
5	4218	3.4	527.32982641282
5	4368	3.5	526.15272670446
5	4518	3.6	525.0756269961
5	4667	3.7	524.09652728774
5	4797	3.8	523.08942757938
5	4927	3.9	522.07196004855
5	5051	4	521.15445164855
6	434	0.9	210.9
6	515	1	210.9
6	647	1.1	210.9
6	817	1.2	210.9
6	981	1.3	210.9
6	1151	1.4	210.9
6	1321	1.5	210.9
6	1465	1.6	210.9
6	1608	1.7	210.9
6	1752	1.8	210.9
6	1915	1.9	210.9
6	2085	2	210.9
6	2255	2.1	210.9
6	2425	2.2	210.9
6	2595	2.3	210.9
6	2765	2.4	210.9
6	2914	2.5	210.9
6	3044	2.6	210.9
6	3174	2.7	210.9
6	3304	2.8	210.9
6	3455	2.9	210.9
6	3625	3	210.9
6	3775	3.1	210.9
6	3925	3.2	210.9
6	4075	3.3	210.9
6	4218	3.4	210.9
6	4368	3.5	210.9
6	4518	3.6	210.9
6	4667	3.7	210.9
6	4797	3.8	210.9
6	4927	3.9	210.9
6	5051	4	210.9
7	515	1	1.4
7	647	1.1	2.4
7	817	1.2	3.4
7	981	1.3	4.4
7	1151	1.4	5.4
7	1321	1.5	6.4
7	1465	1.6	7.4
7	1608	1.7	8.4
7	1752	1.8	9.4
7	1915	1.9	10.4
7	2085	2	11.4
7	2255	2.1	11.381148958024
7	2425	2.2	10.852226436576
7	2595	2.3	10.335352766584
7	2765	2.4	9.8308266492679
7	2914	2.5	9.3389599666918
7	3044	2.6	9.8630317637273
7	3174	2.7	10.44477791879
7	3304	2.8	10.907429523337
7	3455	2.9	9.907429523337
7	3625	3	9.507429523337
7	3775	3.1	10.507429523337
7	3925	3.2	11.507429523337
7	4075	3.3	12.507429523337
7	4218	3.4	12.320997083593
7	4368	3.5	11.320997083593
7	4518	3.6	10.320997083593
7	4667	3.7	9.5209970835933
7	4797	3.8	10.520997083593
7	4927	3.9	9.725084
7	5051	4	8.725084
8	647	1.1	10
8	817	1.2	10
8	981	1.3	10
8	1151	1.4	10
8	1321	1.5	10
8	1465	1.6	10
8	1608	1.7	10
8	1752	1.8	10
8	1915	1.9	10
8	2085	2	10
8	2255	2.1	-0.18851041976216
8	2425	2.2	-5.2892252144801
8	2595	2.3	-5.1687366999135
8	2765	2.4	-5.0452611731646
8	2914	2.5	-4.9186668257612
8	3044	2.6	5.2407179703545
8	3174	2.7	5.8174615506267
8	3304	2.8	4.6265160454701
8	3455	2.9	-10
8	3625	3	-4
8	3775	3.1	10
8	3925	3.2	10
8	4075	3.3	10
8	4218	3.4	-1.8643243974367
8	4368	3.5	-10
8	4518	3.6	-10
8	4667	3.7	-8
8	4797	3.8	10
8	4927	3.9	-7.9591308359328
8	5051	4	-10
9	647	1.1	7.0110530456371
9	817	1.2	9.4716468594995
9	981	1.3	11.934125202514
9	1151	1.4	14.39904234796
9	1321	1.5	16.866952569119
9	1465	1.6	19.338410139269
9	1608	1.7	21.813969331691
9	1752	1.8	24.294184419666
9	1915	1.9	26.779609676472
9	2085	2	29.270799375391
9	2255	2.1	1.278155065962
9	2425	2.2	0.973
9	2595	2.3	0.973
9	2765	2.4	0.973
9	2914	2.5	0.973
9	3044	2.6	14.131565036217
9	3174	2.7	16.362782414471
9	3304	2.8	13.917731371344
9	3455	2.9	0.973
9	3625	3	0.973
9	3775	3.1	27.046950817061
9	3925	3.2	29.538792758367
9	4075	3.3	32.03701296038
9	4218	3.4	0.973
9	4368	3.5	0.973
9	4518	3.6	0.973
9	4667	3.7	0.973
9	4797	3.8	27.080718807009
9	4927	3.9	0.973
9	5051	4	0.973
4	5195	4.1	2.2023483703342
4	5365	4.2	2.2023483703342
4	5515	4.3	2.2023483703342
4	5664	4.4	2.2023483703342
4	5807	4.5	2.2023483703342
4	5957	4.6	2.2023483703342
4	6100	4.7	2.2023483703342
4	6243	4.8	2.2023483703342
4	6386	4.9	2.2023483703342
4	6529	5	2.2023483703342
4	6659	5.1	2.2023483703342
4	6789	5.2	2.2023483703342
4	6913	5.3	2.2023483703342
4	7063	5.4	2.2023483703342
4	7206	5.5	0.973
4	7329	5.6	0.973
4	7459	5.7	0.973
4	7583	5.8	0.973
4	7733	5.9	0.973
4	7876	6	0.973
4	8026	6.1	0.973
4	8176	6.2	0.973
4	8326	6.3	0.973
4	8469	6.4	0.973
4	8612	6.5	0.973
4	8762	6.6	0.973
4	8904	6.7	0.973
4	9034	6.8	0.973
4	9164	6.9	0.973
4	9294	7	0.973
4	9424	7.1	0.973
4	9554	7.2	0.973
4	9684	7.3	0.973
4	9814	7.4	0.973
4	9944	7.5	0.973
4	10074	7.6	0.973
4	10204	7.7	0.973
4	10327	7.8	0.973
4	10457	7.9	0.973
4	10587	8	0.973
4	10717	8.1	0.973
4	10847	8.2	0.973
4	10977	8.3	0.973
4	11107	8.4	0.973
4	11237	8.5	0.973
4	11367	8.6	0.973
4	11497	8.7	0.973
4	11627	8.8	0.973
4	11750	8.9	0.973
4	11880	9	0.973
4	12003	9.1	0.973
4	12133	9.2	0.973
4	12263	9.3	0.973
4	12393	9.4	0.973
4	12523	9.5	0.973
4	12653	9.6	0.973
4	12783	9.7	0.973
4	12913	9.8	0.973
4	13043	9.9	0.973
4	13173	10	0.973
4	13296	10.1	0.973
4	13426	10.2	0.973
4	13556	10.3	0.973
4	13679	10.4	0.973
4	13809	10.5	0.973
4	13939	10.6	0.973
4	14069	10.7	0.973
4	14199	10.8	0.973
4	14329	10.9	0.973
4	14459	11	0.973
4	14589	11.1	0.973
4	14712	11.2	0.973
4	14842	11.3	0.973
4	14965	11.4	0.973
4	15095	11.5	0.973
4	15225	11.6	0.973
4	15349	11.7	0.973
4	15472	11.8	0.973
4	15602	11.9	0.973
4	15732	12	0.973
4	15855	12.1	0.973
4	15985	12.2	0.973
4	16115	12.3	0.973
4	16245	12.4	0.973
4	16375	12.5	0.973
4	16498	12.6	0.973
4	16621	12.7	0.973
4	16752	12.8	0.973
4	16902	12.9	0.973
4	17052	13	0.973
4	17202	13.1	0.973
4	17351	13.2	0.973
4	17481	13.3	0.973
4	17611	13.4	0.973
4	17742	13.5	0.973
4	17892	13.6	0.973
4	18035	13.7	0.973
4	18185	13.8	0.973
4	18335	13.9	0.973
4	18478	14	0.973
4	18627	14.1	0.973
4	18757	14.2	0.973
4	18887	14.3	0.973
4	19011	14.4	0.973
4	19161	14.5	0.973
4	19311	14.6	0.973
4	19455	14.7	0.973
4	19605	14.8	0.973
4	19754	14.9	0.973
4	19884	15	0.973
4	20014	15.1	0.973
4	20145	15.2	0.973
4	20295	15.3	0.973
4	20445	15.4	0.973
4	20588	15.5	0.973
4	20738	15.6	0.973
4	20888	15.7	0.973
4	21030	15.8	0.973
4	21160	15.9	0.973
4	21283	16	0.973
4	21407	16.1	0.973
4	21550	16.2	0.973
4	21693	16.3	0.973
4	21836	16.4	0.973
4	21979	16.5	0.973
4	22129	16.6	0.973
4	22278	16.7	0.973
4	22408	16.8	0.973
4	22539	16.9	0.973
4	22689	17	0.973
4	22839	17.1	0.973
4	22989	17.2	0.973
4	23181	17.3	0.973
4	23350	17.4	0.973
4	23499	17.5	0.973
4	23622	17.6	0.973
4	23794	17.7	0.973
4	23944	17.8	0.973
4	24094	17.9	0.973
4	24243	18	0.973
4	24373	18.1	0.973
4	24503	18.2	0.973
4	24675	18.3	0.973
4	24824	18.4	0.973
4	24947	18.5	0.973
4	25070	18.6	0.973
4	25242	18.7	0.973
4	25391	18.8	0.973
4	25521	18.9	0.973
4	25651	19	0.973
4	25781	19.1	0.973
4	25904	19.2	0.973
4	26069	19.3	0.973
4	26218	19.4	0.973
4	26341	19.5	0.973
4	26471	19.6	0.973
4	26601	19.7	0.973
4	26731	19.8	0.973
4	26861	19.9	0.973
4	26991	20	0.973
4	27121	20.1	0.973
4	27251	20.2	0.973
4	27381	20.3	0.973
4	27511	20.4	0.973
4	27641	20.5	0.973
4	27771	20.6	0.973
4	27901	20.7	3.56833237888
4	28031	20.8	6.02721903104
4	28161	20.9	8.48721422976
4	28291	21	10.94887224832
4	28415	21.1	13.41274736
4	28545	21.2	15.87939383808
4	28688	21.3	18.34936595584
4	28831	21.4	20.82321798656
4	28974	21.5	23.30150420352
4	29117	21.6	25.78477888
4	29267	21.7	28.27359628928
4	29391	21.8	30.76851070464
4	29521	21.9	33.27007639936
4	29651	22	35.77884764672
4	29801	22.1	38.29537872
4	29944	22.2	4.9156105397161
4	30094	22.3	0.973
4	30244	22.4	0.973
4	30388	22.5	0.973
4	30538	22.6	0.973
4	30681	22.7	0.973
4	30804	22.8	0.973
4	30934	22.9	27.466611329461
4	31064	23	29.959489696849
4	31207	23.1	32.458839766353
4	31357	23.2	34.965215811253
4	31507	23.3	37.47917210483
4	31630	23.4	33.19516266799
4	31760	23.5	2.2023483703342
4	31890	23.6	2.2023483703342
4	32020	23.7	2.2023483703342
4	32150	23.8	2.2023483703342
4	32280	23.9	2.2023483703342
4	32403	24	2.2023483703342
4	32533	24.1	2.2023483703342
4	32656	24.2	0.973
4	32786	24.3	0.973
4	32936	24.4	0.973
4	33086	24.5	0.973
4	33236	24.6	0.973
4	33386	24.7	0.973
4	33529	24.8	0.973
4	33679	24.9	0.973
4	33829	25	0.973
4	33972	25.1	0.973
4	34122	25.2	0.973
4	34252	25.3	0.973
4	34375	25.4	0.973
4	34505	25.5	0.973
4	34635	25.6	0.973
4	34765	25.7	0.973
4	34895	25.8	0.973
4	35025	25.9	0.973
4	35155	26	0.973
4	35285	26.1	0.973
4	35409	26.2	0.973
4	35539	26.3	0.973
4	35662	26.4	0.973
4	35785	26.5	0.973
4	35915	26.6	0.973
4	36045	26.7	0.973
4	36168	26.8	0.973
4	36298	26.9	0.973
4	36428	27	0.973
4	36558	27.1	0.973
4	36688	27.2	0.973
4	36818	27.3	0.973
4	36948	27.4	0.973
4	37078	27.5	0.973
4	37201	27.6	0.973
4	37331	27.7	0.973
4	37461	27.8	0.973
4	37591	27.9	0.973
4	37714	28	0.973
4	37844	28.1	0.973
4	37974	28.2	0.973
4	38104	28.3	0.973
4	38234	28.4	0.973
4	38364	28.5	0.973
4	38494	28.6	0.973
4	38624	28.7	0.973
4	38754	28.8	0.973
4	38884	28.9	0.973
4	39014	29	0.973
4	39144	29.1	0.973
4	39274	29.2	0.973
4	39404	29.3	0.973
4	39534	29.4	0.973
4	39664	29.5	0.973
4	39836	29.6	0.973
4	39978	29.7	0.973
4	40108	29.8	0.973
4	40238	29.9	0.973
4	40361	30	0.973
4	40484	30.1	0.973
4	40649	30.2	0.973
4	40798	30.3	0.973
4	40928	30.4	0.973
4	41051	30.5	0.973
4	41223	30.6	0.973
4	41372	30.7	0.973
4	41502	30.8	0.973
4	41632	30.9	0.973
4	41762	31	0.973
4	41885	31.1	0.973
4	42051	31.2	0.973
4	42200	31.3	0.973
4	42330	31.4	0.973
4	42460	31.5	0.973
4	42632	31.6	0.973
4	42781	31.7	0.973
4	42911	31.8	0.973
4	43041	31.9	0.973
4	43171	32	0.973
4	43294	32.1	0.973
4	43466	32.2	0.973
4	43615	32.3	0.973
4	43745	32.4	0.973
4	43875	32.5	0.973
4	44005	32.6	0.973
4	44135	32.7	0.973
4	44265	32.8	0.973
4	44395	32.9	0.973
4	44525	33	0.973
4	44648	33.1	0.973
4	44772	33.2	0.973
4	44902	33.3	0.973
4	45025	33.4	0.973
4	45155	33.5	0.973
4	45285	33.6	0.973
4	45415	33.7	0.973
4	45545	33.8	0.973
4	45668	33.9	0.973
4	45798	34	0.973
4	45921	34.1	0.973
4	46051	34.2	0.973
4	46181	34.3	0.973
4	46304	34.4	0.973
4	46427	34.5	0.973
4	46557	34.6	0.973
4	46687	34.7	0.973
4	46810	34.8	0.973
4	46940	34.9	0.973
4	47070	35	0.973
4	47200	35.1	0.973
4	47330	35.2	0.973
4	47460	35.3	0.973
4	47590	35.4	0.973
4	47720	35.5	0.973
4	47850	35.6	0.973
4	47980	35.7	0.973
4	48110	35.8	0.973
4	48233	35.9	0.973
4	48363	36	0.973
4	48493	36.1	0.973
4	48623	36.2	0.973
4	48753	36.3	0.973
4	48883	36.4	0.973
4	49013	36.5	0.973
4	49143	36.6	0.973
4	49266	36.7	0.973
4	49396	36.8	0.973
4	49519	36.9	0.973
4	49649	37	0.973
4	49772	37.1	0.973
4	49902	37.2	0.973
4	50032	37.3	0.973
4	50162	37.4	0.973
4	50292	37.5	0.973
4	50422	37.6	0.973
4	50552	37.7	0.973
4	50682	37.8	0.973
4	50812	37.9	0.973
4	50942	38	0.973
4	51072	38.1	0.973
4	51202	38.2	0.973
4	51332	38.3	0.973
4	51462	38.4	0.973
4	51592	38.5	0.973
4	51722	38.6	0.973
4	51852	38.7	0.973
4	51982	38.8	0.973
4	52112	38.9	0.973
4	52242	39	0.973
4	52372	39.1	0.973
4	52495	39.2	0.973
4	52625	39.3	0.973
4	52755	39.4	0.973
4	52879	39.5	0.973
4	53002	39.6	0.973
4	53125	39.7	0.973
4	53255	39.8	0.973
4	53378	39.9	0.973
4	53508	40	0.973
4	53638	40.1	0.973
4	53768	40.2	0.973
4	53898	40.3	0.973
4	54028	40.4	0.973
4	54158	40.5	0.973
4	54288	40.6	0.973
4	54418	40.7	0.973
4	54548	40.8	0.973
4	54678	40.9	0.973
4	54801	41	0.973
4	54931	41.1	0.973
4	55061	41.2	0.973
4	55191	41.3	0.973
4	55321	41.4	0.973
4	55451	41.5	0.973
4	55574	41.6	0.973
4	55704	41.7	0.973
4	55834	41.8	0.973
4	55957	41.9	0.973
4	56080	42	0.973
4	56210	42.1	0.973
4	56340	42.2	0.973
4	56470	42.3	0.973
4	56593	42.4	0.973
4	56716	42.5	0.973
4	56846	42.6	0.973
4	56970	42.7	0.973
4	57100	42.8	0.973
4	57223	42.9	0.973
4	57353	43	0.973
4	57483	43.1	0.973
4	57606	43.2	0.973
4	57736	43.3	0.973
4	57859	43.4	0.973
4	57989	43.5	0.973
4	58119	43.6	0.973
4	58249	43.7	0.973
4	58379	43.8	0.973
4	58509	43.9	0.973
4	58639	44	0.973
4	58762	44.1	0.973
4	58892	44.2	0.973
4	59022	44.3	0.973
4	59152	44.4	0.973
4	59275	44.5	0.973
4	59398	44.6	0.973
4	59528	44.7	0.973
4	59658	44.8	0.973
4	59788	44.9	0.973
4	59918	45	0.973
4	60048	45.1	0.973
4	60178	45.2	0.973
4	60308	45.3	0.973
4	60438	45.4	0.973
4	60568	45.5	0.973
4	60698	45.6	0.973
4	60821	45.7	0.973
4	60951	45.8	0.973
4	61081	45.9	0.973
4	61211	46	0.973
4	61341	46.1	0.973
4	61471	46.2	0.973
4	61601	46.3	0.973
4	61731	46.4	0.973
4	61861	46.5	0.973
4	61984	46.6	0.973
4	62114	46.7	0.973
4	62244	46.8	0.973
4	62367	46.9	0.973
4	62490	47	0.973
4	62620	47.1	0.973
4	62743	47.2	0.973
4	62873	47.3	0.973
4	62996	47.4	0.973
4	63126	47.5	0.973
4	63256	47.6	0.973
4	63380	47.7	0.973
4	63503	47.8	0.973
4	63633	47.9	0.973
4	63756	48	0.973
4	63886	48.1	0.973
4	64017	48.2	0.973
4	64167	48.3	0.973
4	64317	48.4	0.973
4	64466	48.5	0.973
4	64596	48.6	0.973
4	64726	48.7	0.973
4	64850	48.8	0.973
4	65000	48.9	0.973
4	65143	49	0.973
4	65286	49.1	0.973
4	65436	49.2	0.973
4	65586	49.3	0.973
4	65728	49.4	0.973
4	65858	49.5	0.973
4	65988	49.6	0.973
4	66119	49.7	0.973
4	66269	49.8	0.973
4	66411	49.9	0.973
4	66541	50	0.973
4	66671	50.1	0.973
4	66801	50.2	3.56833237888
4	66931	50.3	6.02721903104
4	67061	50.4	8.48721422976
4	67184	50.5	10.94887224832
4	67314	50.6	13.41274736
4	67444	50.7	15.87939383808
4	67574	50.8	18.34936595584
4	67705	50.9	6.1741672303514
4	67855	51	1.4960189753579
4	68004	51.1	1.4960189753579
4	68127	51.2	1.4960189753579
4	68257	51.3	1.4960189753579
4	68388	51.4	1.4960189753579
4	68558	51.5	1.4960189753579
4	68728	51.6	1.4960189753579
4	68891	51.7	1.4960189753579
4	69054	51.8	1.4960189753579
4	69224	51.9	1.4960189753579
4	69393	52	1.4960189753579
4	69543	52.1	1.4960189753579
4	69686	52.2	1.4960189753579
4	69837	52.3	1.4960189753579
4	70007	52.4	1.4960189753579
4	70170	52.5	1.4960189753579
4	70340	52.6	1.4960189753579
4	70503	52.7	1.4960189753579
4	70673	52.8	1.4960189753579
4	70842	52.9	1.4960189753579
4	70972	53	1.4960189753579
4	71095	53.1	1.4960189753579
4	71225	53.2	1.4960189753579
4	71348	53.3	1.4960189753579
4	71478	53.4	1.4960189753579
4	71601	53.5	1.4960189753579
4	71731	53.6	1.4960189753579
4	71861	53.7	1.4960189753579
4	71991	53.8	1.4960189753579
4	72121	53.9	1.4960189753579
4	72244	54	1.4960189753579
4	72374	54.1	1.4960189753579
4	72497	54.2	1.4960189753579
4	72628	54.3	1.4960189753579
4	72778	54.4	1.4960189753579
4	72921	54.5	1.4960189753579
4	73064	54.6	1.4960189753579
4	73214	54.7	1.4960189753579
4	73364	54.8	1.4960189753579
4	73533	54.9	1.4960189753579
4	73683	55	1.4960189753579
4	73834	55.1	1.4960189753579
4	74004	55.2	1.4960189753579
4	74174	55.3	1.4960189753579
4	74324	55.4	1.4960189753579
4	74474	55.5	1.4960189753579
4	74624	55.6	1.4960189753579
4	74773	55.7	1.4960189753579
4	74903	55.8	1.4960189753579
4	75046	55.9	1.4960189753579
4	75197	56	1.4960189753579
4	75367	56.1	1.4960189753579
4	75537	56.2	1.4960189753579
4	75707	56.3	1.4960189753579
4	75877	56.4	1.4960189753579
4	76047	56.5	1.4960189753579
4	76216	56.6	1.4960189753579
4	76366	56.7	1.4960189753579
4	76509	56.8	1.4960189753579
4	76653	56.9	1.4960189753579
4	76816	57	1.4960189753579
4	76966	57.1	1.4960189753579
4	77116	57.2	1.4960189753579
4	77266	57.3	1.4960189753579
4	77415	57.4	1.4960189753579
4	77538	57.5	1.4960189753579
4	77661	57.6	1.4960189753579
4	77812	57.7	1.4960189753579
4	77975	57.8	1.4960189753579
4	78145	57.9	1.4960189753579
4	78315	58	1.4960189753579
4	78485	58.1	1.4960189753579
4	78655	58.2	1.4960189753579
4	78824	58.3	1.4960189753579
4	78967	58.4	1.4960189753579
4	79117	58.5	1.4960189753579
4	79268	58.6	1.4960189753579
4	79438	58.7	1.4960189753579
4	79588	58.8	1.4960189753579
4	79731	58.9	1.4960189753579
4	79881	59	1.4960189753579
4	80031	59.1	1.4960189753579
4	80180	59.2	1.4960189753579
4	80310	59.3	1.4960189753579
4	80461	59.4	1.4960189753579
4	80631	59.5	1.4960189753579
4	80801	59.6	1.4960189753579
4	80970	59.7	1.4960189753579
4	81113	59.8	1.4960189753579
4	81263	59.9	1.4960189753579
4	81413	60	1.4960189753579
4	81563	60.1	1.4960189753579
4	81713	60.2	1.4960189753579
4	81863	60.3	1.4960189753579
4	82013	60.4	1.4960189753579
4	82136	60.5	1.4960189753579
4	82266	60.6	1.4960189753579
4	82396	60.7	1.4960189753579
4	82519	60.8	1.4960189753579
4	82649	60.9	1.4960189753579
4	82779	61	1.4960189753579
4	82929	61.1	1.4960189753579
4	83072	61.2	1.4960189753579
4	83222	61.3	1.4960189753579
4	83372	61.4	1.4960189753579
4	83522	61.5	1.4960189753579
4	83665	61.6	1.4960189753579
4	83808	61.7	1.4960189753579
4	83958	61.8	1.4960189753579
4	84108	61.9	1.4960189753579
4	84251	62	1.4960189753579
4	84401	62.1	1.4960189753579
4	84544	62.2	1.4960189753579
4	84674	62.3	1.4960189753579
4	84804	62.4	1.4960189753579
4	84934	62.5	1.4960189753579
4	85064	62.6	1.4960189753579
4	85194	62.7	1.4960189753579
4	85344	62.8	1.4960189753579
4	85494	62.9	1.4960189753579
4	85644	63	1.4960189753579
4	85794	63.1	1.4960189753579
4	85944	63.2	0.973
4	86074	63.3	0.973
4	86204	63.4	0.973
4	86327	63.5	0.973
4	86450	63.6	0.973
4	86580	63.7	0.973
4	86710	63.8	0.973
4	86833	63.9	0.973
4	86963	64	0.973
4	87093	64.1	0.973
4	87223	64.2	0.973
4	87346	64.3	0.973
4	87476	64.4	0.973
4	87606	64.5	0.973
4	87736	64.6	0.973
4	87859	64.7	0.973
4	87982	64.8	0.973
4	88112	64.9	0.973
4	88242	65	0.973
4	88372	65.1	0.973
4	88502	65.2	0.973
4	88632	65.3	0.973
4	88762	65.4	0.973
4	88892	65.5	0.973
4	89022	65.6	0.973
4	89152	65.7	0.973
4	89282	65.8	0.973
4	89412	65.9	0.973
4	89542	66	0.973
4	89672	66.1	0.973
4	89795	66.2	0.973
4	89925	66.3	0.973
4	90055	66.4	0.973
4	90185	66.5	0.973
4	90308	66.6	0.973
4	90438	66.7	0.973
4	90568	66.8	0.973
4	90698	66.9	0.973
4	90828	67	0.973
4	90958	67.1	0.973
4	91088	67.2	0.973
4	91211	67.3	0.973
4	91341	67.4	0.973
4	91464	67.5	0.973
4	91594	67.6	0.973
4	91724	67.7	0.973
4	91854	67.8	0.973
4	91977	67.9	0.973
4	92107	68	0.973
4	92237	68.1	0.973
4	92367	68.2	0.973
4	92497	68.3	0.973
4	92627	68.4	0.973
4	92757	68.5	0.973
4	92880	68.6	0.973
4	93010	68.7	0.973
4	93140	68.8	0.973
4	93263	68.9	0.973
4	93393	69	0.973
4	93523	69.1	0.973
4	93646	69.2	0.973
4	93776	69.3	0.973
4	93906	69.4	0.973
4	94029	69.5	0.973
4	94159	69.6	0.973
4	94289	69.7	0.973
4	94419	69.8	0.973
4	94549	69.9	0.973
4	94679	70	0.973
4	94802	70.1	0.973
4	94925	70.2	0.973
4	95055	70.3	0.973
4	95185	70.4	0.973
4	95315	70.5	0.973
4	95445	70.6	0.973
4	95575	70.7	0.973
4	95698	70.8	0.973
4	95821	70.9	0.973
4	95951	71	0.973
4	96081	71.1	0.973
4	96204	71.2	0.973
4	96334	71.3	0.973
4	96457	71.4	0.973
4	96587	71.5	0.973
4	96710	71.6	0.973
4	96840	71.7	0.973
4	96970	71.8	0.973
4	97093	71.9	0.973
4	97223	72	0.973
4	97353	72.1	0.973
4	97483	72.2	0.973
4	97606	72.3	0.973
4	97729	72.4	0.973
4	97859	72.5	0.973
4	97982	72.6	0.973
4	98112	72.7	0.973
4	98242	72.8	0.973
4	98365	72.9	0.973
4	98495	73	0.973
4	98625	73.1	0.973
4	98755	73.2	0.973
4	98878	73.3	0.973
4	99008	73.4	0.973
4	99131	73.5	0.973
4	99261	73.6	0.973
4	99391	73.7	0.973
4	99521	73.8	0.973
4	99644	73.9	0.973
4	99774	74	0.973
4	99904	74.1	0.973
4	100034	74.2	0.973
4	100157	74.3	0.973
4	100287	74.4	0.973
4	100417	74.5	0.973
4	100540	74.6	0.973
4	100670	74.7	0.973
4	100793	74.8	0.973
4	100916	74.9	0.973
4	101046	75	0.973
4	101176	75.1	0.973
4	101306	75.2	0.973
4	101436	75.3	0.973
4	101566	75.4	0.973
4	101696	75.5	0.973
4	101826	75.6	0.973
4	101956	75.7	0.973
4	102086	75.8	0.973
4	102209	75.9	0.973
4	102332	76	0.973
4	102455	76.1	0.973
4	102578	76.2	0.973
4	102701	76.3	0.973
4	102824	76.4	0.973
4	102954	76.5	0.973
4	103077	76.6	0.973
4	103207	76.7	0.973
4	103337	76.8	0.973
4	103467	76.9	0.973
4	103597	77	0.973
4	103720	77.1	0.973
4	103850	77.2	0.973
4	103980	77.3	0.973
4	104110	77.4	0.973
4	104233	77.5	0.973
4	104363	77.6	0.973
4	104493	77.7	0.973
4	104623	77.8	0.973
4	104753	77.9	0.973
4	104876	78	0.973
4	105006	78.1	0.973
4	105136	78.2	0.973
4	105266	78.3	0.973
4	105396	78.4	0.973
4	105519	78.5	0.973
4	105649	78.6	0.973
4	105772	78.7	0.973
4	105902	78.8	0.973
4	106032	78.9	0.973
4	106162	79	0.973
4	106292	79.1	0.973
4	106422	79.2	0.973
4	106552	79.3	0.973
4	106682	79.4	0.973
4	106812	79.5	0.973
4	106935	79.6	0.973
4	107065	79.7	0.973
4	107195	79.8	0.973
4	107325	79.9	0.973
4	107455	80	0.973
4	107585	80.1	0.973
4	107715	80.2	0.973
4	107838	80.3	0.973
4	107968	80.4	0.973
4	108091	80.5	0.973
4	108214	80.6	0.973
4	108344	80.7	0.973
4	108467	80.8	0.973
4	108597	80.9	0.973
4	108727	81	0.973
4	108857	81.1	0.973
4	108987	81.2	0.973
4	109117	81.3	0.973
4	109247	81.4	0.973
4	109377	81.5	0.973
4	109507	81.6	0.973
4	109637	81.7	0.973
4	109760	81.8	0.973
4	109890	81.9	0.973
4	110020	82	0.973
4	110143	82.1	0.973
4	110273	82.2	0.973
4	110403	82.3	0.973
4	110526	82.4	0.973
4	110656	82.5	0.973
4	110786	82.6	0.973
4	110916	82.7	0.973
4	111039	82.8	0.973
4	111162	82.9	0.973
4	111292	83	0.973
4	111422	83.1	0.973
4	111552	83.2	0.973
4	111682	83.3	0.973
4	111812	83.4	0.973
4	111935	83.5	0.973
4	112065	83.6	0.973
4	112195	83.7	0.973
4	112318	83.8	0.973
4	112441	83.9	0.973
4	112571	84	0.973
4	112694	84.1	0.973
4	112824	84.2	0.973
4	112955	84.3	0.973
4	113105	84.4	0.973
4	113255	84.5	0.973
4	113397	84.6	0.973
4	113527	84.7	0.973
4	113657	84.8	0.973
4	113787	84.9	0.973
4	113911	85	0.973
4	114061	85.1	0.973
4	114211	85.2	0.973
4	114361	85.3	0.973
4	114504	85.4	0.973
4	114653	85.5	0.973
4	114783	85.6	0.973
4	114913	85.7	0.973
4	115044	85.8	0.973
4	115194	85.9	0.973
4	115343	86	0.973
4	115473	86.1	0.973
4	115603	86.2	0.973
4	115733	86.3	0.973
4	115863	86.4	0.973
4	115993	86.5	0.973
4	116116	86.6	0.973
4	116239	86.7	0.973
4	116362	86.8	0.973
4	116492	86.9	0.973
4	116623	87	0.973
4	116766	87.1	0.973
4	116916	87.2	0.973
4	117065	87.3	0.973
4	117195	87.4	0.973
4	117319	87.5	0.973
4	117469	87.6	0.973
4	117619	87.7	0.973
4	117769	87.8	3.56833237888
4	117919	87.9	6.02721903104
4	118069	88	8.48721422976
4	118218	88.1	10.94887224832
4	118341	88.2	13.41274736
4	118471	88.3	15.87939383808
4	118602	88.4	18.34936595584
4	118752	88.5	6.1741672303514
4	118902	88.6	1.4960189753579
4	119052	88.7	1.4960189753579
4	119202	88.8	1.4960189753579
4	119352	88.9	1.4960189753579
4	119501	89	1.4960189753579
4	119651	89.1	1.4960189753579
4	119795	89.2	1.4960189753579
4	119958	89.3	1.4960189753579
4	120128	89.4	1.4960189753579
4	120291	89.5	1.4960189753579
4	120461	89.6	1.4960189753579
4	120631	89.7	1.4960189753579
4	120780	89.8	1.4960189753579
4	120923	89.9	1.4960189753579
4	121073	90	1.4960189753579
4	121224	90.1	1.4960189753579
4	121394	90.2	1.4960189753579
4	121564	90.3	1.4960189753579
4	121734	90.4	1.4960189753579
4	121904	90.5	1.4960189753579
4	122054	90.6	1.4960189753579
4	122203	90.7	1.4960189753579
4	122333	90.8	1.4960189753579
4	122463	90.9	1.4960189753579
4	122594	91	1.4960189753579
4	122744	91.1	1.4960189753579
4	122894	91.2	1.4960189753579
4	123044	91.3	1.4960189753579
4	123194	91.4	1.4960189753579
4	123343	91.5	1.4960189753579
4	123473	91.6	1.4960189753579
4	123596	91.7	1.4960189753579
4	123726	91.8	1.4960189753579
4	123850	91.9	1.4960189753579
4	124000	92	1.4960189753579
4	124143	92.1	1.4960189753579
4	124292	92.2	1.4960189753579
4	124422	92.3	1.4960189753579
4	124552	92.4	1.4960189753579
4	124682	92.5	1.4960189753579
4	124812	92.6	1.4960189753579
4	124942	92.7	1.4960189753579
4	125072	92.8	1.4960189753579
4	125195	92.9	1.4960189753579
4	125325	93	1.4960189753579
4	125455	93.1	1.4960189753579
4	125585	93.2	1.4960189753579
4	125715	93.3	1.4960189753579
4	125845	93.4	1.4960189753579
4	125975	93.5	1.4960189753579
4	126105	93.6	1.4960189753579
4	126235	93.7	1.4960189753579
4	126365	93.8	1.4960189753579
4	126496	93.9	1.4960189753579
4	126646	94	1.4960189753579
4	126796	94.1	1.4960189753579
4	126939	94.2	1.4960189753579
4	127089	94.3	1.4960189753579
4	127239	94.4	1.4960189753579
4	127389	94.5	1.4960189753579
4	127532	94.6	1.4960189753579
4	127682	94.7	1.4960189753579
4	127832	94.8	1.4960189753579
4	127981	94.9	1.4960189753579
4	128104	95	1.4960189753579
4	128234	95.1	1.4960189753579
4	128364	95.2	1.4960189753579
4	128487	95.3	1.4960189753579
4	128617	95.4	1.4960189753579
4	128740	95.5	1.4960189753579
4	128870	95.6	1.4960189753579
4	129000	95.7	1.4960189753579
4	129130	95.8	1.4960189753579
4	129260	95.9	1.4960189753579
4	129390	96	1.4960189753579
4	129520	96.1	1.4960189753579
4	129644	96.2	1.4960189753579
4	129787	96.3	1.4960189753579
4	129937	96.4	1.4960189753579
4	130087	96.5	1.4960189753579
4	130237	96.6	1.4960189753579
4	130380	96.7	1.4960189753579
4	130530	96.8	1.4960189753579
4	130680	96.9	1.4960189753579
4	130823	97	1.4960189753579
4	130973	97.1	1.4960189753579
4	131116	97.2	1.4960189753579
4	131266	97.3	1.4960189753579
4	131415	97.4	1.4960189753579
4	131538	97.5	1.4960189753579
4	131668	97.6	1.4960189753579
4	131798	97.7	1.4960189753579
4	131928	97.8	1.4960189753579
4	132058	97.9	1.4960189753579
4	132181	98	1.4960189753579
4	132311	98.1	1.4960189753579
4	132441	98.2	1.4960189753579
4	132564	98.3	1.4960189753579
4	132694	98.4	1.4960189753579
4	132824	98.5	1.4960189753579
4	132954	98.6	1.4960189753579
4	133084	98.7	1.4960189753579
4	133207	98.8	1.4960189753579
4	133337	98.9	1.4960189753579
4	133467	99	1.4960189753579
4	133597	99.1	1.4960189753579
4	133721	99.2	1.4960189753579
4	133851	99.3	1.4960189753579
4	133981	99.4	1.4960189753579
4	134131	99.5	0.973
4	134281	99.6	0.973
4	134424	99.7	0.973
4	134574	99.8	0.973
4	134724	99.9	0.973
4	134867	100	0.973
4	134997	100.1	0.973
4	135120	100.2	0.973
4	135250	100.3	0.973
4	135380	100.4	0.973
4	135510	100.5	0.973
4	135640	100.6	0.973
4	135770	100.7	0.973
4	135900	100.8	0.973
4	136030	100.9	0.973
4	136160	101	0.973
4	136290	101.1	0.973
4	136420	101.2	0.973
4	136550	101.3	0.973
4	136680	101.4	0.973
4	136810	101.5	0.973
4	136940	101.6	0.973
4	137070	101.7	0.973
4	137200	101.8	0.973
4	137324	101.9	0.973
4	137454	102	0.973
4	137584	102.1	0.973
4	137714	102.2	0.973
4	137844	102.3	0.973
4	137974	102.4	0.973
4	138104	102.5	0.973
4	138234	102.6	0.973
4	138357	102.7	0.973
4	138487	102.8	0.973
4	138617	102.9	0.973
4	138747	103	0.973
4	138870	103.1	0.973
4	139000	103.2	0.973
4	139130	103.3	0.973
4	139260	103.4	0.973
4	139390	103.5	0.973
4	139513	103.6	0.973
4	139636	103.7	0.973
4	139766	103.8	0.973
4	139896	103.9	0.973
4	140026	104	0.973
4	140156	104.1	0.973
4	140286	104.2	0.973
4	140416	104.3	0.973
4	140546	104.4	0.973
4	140669	104.5	0.973
4	140799	104.6	0.973
4	140922	104.7	0.973
4	141052	104.8	0.973
4	141182	104.9	0.973
4	141312	105	0.973
4	141442	105.1	0.973
4	141572	105.2	0.973
4	141702	105.3	0.973
4	141832	105.4	0.973
4	141962	105.5	0.973
4	142092	105.6	0.973
4	142215	105.7	0.973
4	142345	105.8	0.973
4	142475	105.9	0.973
4	142605	106	0.973
4	142735	106.1	0.973
4	142865	106.2	0.973
4	142995	106.3	0.973
4	143125	106.4	0.973
4	143255	106.5	0.973
4	143385	106.6	0.973
4	143515	106.7	0.973
4	143645	106.8	0.973
4	143775	106.9	0.973
4	143898	107	0.973
4	144028	107.1	0.973
4	144158	107.2	0.973
4	144288	107.3	0.973
4	144418	107.4	0.973
4	144548	107.5	0.973
4	144678	107.6	0.973
4	144802	107.7	0.973
4	144932	107.8	0.973
4	145062	107.9	0.973
4	145192	108	0.973
4	145322	108.1	0.973
4	145452	108.2	0.973
4	145575	108.3	0.973
4	145705	108.4	0.973
4	145835	108.5	0.973
4	145958	108.6	0.973
4	146088	108.7	0.973
4	146218	108.8	0.973
4	146348	108.9	0.973
4	146478	109	0.973
4	146608	109.1	0.973
4	146732	109.2	0.973
4	146862	109.3	0.973
4	146985	109.4	0.973
4	147135	109.5	3.56833237888
4	147278	109.6	6.02721903104
4	147428	109.7	8.48721422976
4	147578	109.8	10.94887224832
4	147721	109.9	13.41274736
4	147871	110	15.87939383808
4	148021	110.1	18.34936595584
4	148171	110.2	6.1741672303514
4	148321	110.3	1.4960189753579
4	148471	110.4	1.4960189753579
4	148621	110.5	1.4960189753579
4	148765	110.6	1.4960189753579
4	148909	110.7	1.4960189753579
4	149059	110.8	1.4960189753579
4	149209	110.9	1.4960189753579
4	149352	111	1.4960189753579
4	149495	111.1	1.4960189753579
4	149638	111.2	1.4960189753579
4	149781	111.3	1.4960189753579
4	149931	111.4	1.4960189753579
4	150081	111.5	1.4960189753579
4	150224	111.6	1.4960189753579
4	150368	111.7	1.4960189753579
4	150518	111.8	1.4960189753579
4	150661	111.9	1.4960189753579
4	150811	112	1.4960189753579
4	150961	112.1	1.4960189753579
4	151111	112.2	1.4960189753579
4	151261	112.3	1.4960189753579
4	151404	112.4	1.4960189753579
4	151547	112.5	1.4960189753579
4	151697	112.6	1.4960189753579
4	151847	112.7	1.4960189753579
4	151997	112.8	1.4960189753579
4	152147	112.9	1.4960189753579
4	152297	113	1.4960189753579
4	152447	113.1	1.4960189753579
4	152597	113.2	1.4960189753579
4	152740	113.3	1.4960189753579
4	152883	113.4	1.4960189753579
4	153033	113.5	1.4960189753579
4	153183	113.6	1.4960189753579
4	153333	113.7	1.4960189753579
4	153483	113.8	1.4960189753579
4	153626	113.9	1.4960189753579
4	153769	114	1.4960189753579
4	153912	114.1	1.4960189753579
4	154062	114.2	1.4960189753579
4	154205	114.3	1.4960189753579
4	154348	114.4	1.4960189753579
4	154498	114.5	1.4960189753579
4	154648	114.6	1.4960189753579
4	154798	114.7	1.4960189753579
4	154948	114.8	1.4960189753579
4	155091	114.9	1.4960189753579
4	155241	115	1.4960189753579
4	155384	115.1	1.4960189753579
4	155534	115.2	1.4960189753579
4	155684	115.3	0.973
4	155834	115.4	0.973
4	155977	115.5	0.973
4	156127	115.6	0.973
4	156277	115.7	0.973
4	156427	115.8	0.973
4	156577	115.9	0.973
4	156727	116	0.973
4	156877	116.1	0.973
4	157027	116.2	0.973
4	157177	116.3	0.973
4	157327	116.4	0.973
4	157477	116.5	0.973
4	157620	116.6	0.973
4	157763	116.7	0.973
4	157906	116.8	0.973
4	158056	116.9	0.973
4	158206	117	0.973
4	158349	117.1	0.973
4	158499	117.2	0.973
4	158649	117.3	0.973
4	158792	117.4	0.973
4	158942	117.5	0.973
4	159085	117.6	0.973
4	159228	117.7	0.973
4	159378	117.8	0.973
4	159521	117.9	0.973
4	159671	118	0.973
4	159814	118.1	0.973
4	159964	118.2	0.973
4	160107	118.3	0.973
4	160250	118.4	0.973
4	160400	118.5	3.56833237888
4	160543	118.6	6.02721903104
4	160693	118.7	8.48721422976
4	160843	118.8	10.94887224832
4	160986	118.9	1.30887224832
4	161136	119	1.30887224832
4	161279	119.1	1.30887224832
4	161429	119.2	1.30887224832
4	161572	119.3	1.30887224832
4	161715	119.4	1.30887224832
4	161865	119.5	1.30887224832
4	162008	119.6	1.30887224832
4	162158	119.7	1.30887224832
4	162308	119.8	1.30887224832
4	162458	119.9	1.30887224832
4	162608	120	1.30887224832
4	162751	120.1	1.30887224832
4	162894	120.2	1.30887224832
4	163037	120.3	1.30887224832
4	163187	120.4	1.30887224832
4	163330	120.5	1.30887224832
4	163480	120.6	1.30887224832
4	163631	120.7	1.30887224832
4	163801	120.8	1.30887224832
4	163971	120.9	1.30887224832
4	164134	121	1.30887224832
4	164304	121.1	1.30887224832
4	164466	121.2	1.30887224832
4	164616	121.3	1.30887224832
4	164766	121.4	1.30887224832
4	164909	121.5	1.30887224832
4	165059	121.6	1.30887224832
4	165209	121.7	1.30887224832
4	165359	121.8	1.30887224832
4	165509	121.9	1.30887224832
4	165659	122	1.30887224832
4	165809	122.1	1.30887224832
4	165959	122.2	1.30887224832
4	166109	122.3	1.30887224832
4	166259	122.4	1.30887224832
4	166409	122.5	1.30887224832
4	166559	122.6	1.30887224832
4	166709	122.7	1.30887224832
4	166852	122.8	1.30887224832
4	166995	122.9	1.30887224832
4	167145	123	1.30887224832
4	167288	123.1	1.30887224832
4	167438	123.2	1.30887224832
4	167581	123.3	1.30887224832
4	167724	123.4	1.30887224832
4	167867	123.5	1.30887224832
4	168010	123.6	1.30887224832
4	168160	123.7	1.30887224832
4	168310	123.8	1.30887224832
4	168453	123.9	1.30887224832
4	168596	124	1.30887224832
4	168746	124.1	1.30887224832
4	168889	124.2	1.30887224832
4	169032	124.3	1.30887224832
4	169182	124.4	1.30887224832
4	169332	124.5	1.30887224832
4	169482	124.6	1.30887224832
4	169632	124.7	1.30887224832
4	169782	124.8	1.30887224832
4	169932	124.9	1.30887224832
4	170075	125	1.30887224832
4	170218	125.1	1.30887224832
4	170368	125.2	1.30887224832
4	170511	125.3	1.30887224832
4	170654	125.4	1.30887224832
4	170804	125.5	1.30887224832
4	170954	125.6	1.30887224832
4	171104	125.7	1.30887224832
4	171254	125.8	1.30887224832
4	171404	125.9	1.30887224832
4	171554	126	1.30887224832
4	171704	126.1	1.30887224832
4	171847	126.2	1.30887224832
4	171997	126.3	1.30887224832
4	172147	126.4	1.30887224832
4	172290	126.5	1.30887224832
4	172440	126.6	1.30887224832
4	172590	126.7	1.30887224832
4	172740	126.8	1.30887224832
4	172890	126.9	1.30887224832
4	173033	127	1.30887224832
4	173176	127.1	1.30887224832
4	173326	127.2	1.30887224832
4	173476	127.3	1.30887224832
4	173626	127.4	1.30887224832
4	173776	127.5	1.30887224832
4	173926	127.6	1.30887224832
4	174069	127.7	1.30887224832
4	174212	127.8	1.30887224832
4	174362	127.9	1.30887224832
4	174512	128	1.30887224832
4	174662	128.1	1.30887224832
4	174812	128.2	1.30887224832
4	174962	128.3	1.30887224832
4	175105	128.4	1.30887224832
4	175255	128.5	1.30887224832
4	175405	128.6	1.30887224832
4	175548	128.7	1.30887224832
4	175691	128.8	1.30887224832
4	175834	128.9	1.30887224832
4	175984	129	1.30887224832
4	176127	129.1	1.30887224832
4	176277	129.2	1.30887224832
4	176420	129.3	1.30887224832
4	176570	129.4	1.30887224832
4	176720	129.5	1.30887224832
4	176870	129.6	1.30887224832
4	177013	129.7	1.30887224832
4	177163	129.8	1.30887224832
4	177306	129.9	1.30887224832
4	177449	130	1.30887224832
4	177599	130.1	1.30887224832
4	177742	130.2	1.30887224832
4	177885	130.3	1.30887224832
4	178035	130.4	1.30887224832
4	178185	130.5	1.30887224832
4	178335	130.6	1.30887224832
4	178486	130.7	1.30887224832
4	178649	130.8	1.30887224832
4	178819	130.9	1.30887224832
4	178982	131	1.30887224832
4	179152	131.1	1.30887224832
4	179315	131.2	1.30887224832
4	179485	131.3	1.30887224832
4	179655	131.4	1.30887224832
4	179818	131.5	1.30887224832
4	179988	131.6	1.30887224832
4	180151	131.7	1.30887224832
4	180315	131.8	1.30887224832
4	180485	131.9	1.30887224832
4	180655	132	1.30887224832
4	180825	132.1	1.30887224832
4	180995	132.2	1.30887224832
4	181165	132.3	0.973
4	181335	132.4	0.973
4	181498	132.5	0.973
4	181668	132.6	0.973
4	181838	132.7	0.973
4	182001	132.8	0.973
4	182164	132.9	0.973
4	182334	133	0.973
4	182504	133.1	0.973
4	182674	133.2	0.973
4	182837	133.3	0.973
4	183007	133.4	0.973
4	183177	133.5	0.973
4	183347	133.6	0.973
4	183517	133.7	0.973
4	183687	133.8	0.973
4	183857	133.9	0.973
4	184027	134	0.973
4	184190	134.1	0.973
4	184360	134.2	0.973
4	184530	134.3	0.973
4	184700	134.4	0.973
4	184863	134.5	0.973
4	185026	134.6	0.973
4	185196	134.7	0.973
4	185359	134.8	0.973
4	185522	134.9	0.973
4	185692	135	0.973
4	185862	135.1	0.973
4	186032	135.2	0.973
4	186202	135.3	0.973
4	186372	135.4	0.973
4	186542	135.5	0.973
4	186712	135.6	0.973
4	186875	135.7	0.973
4	187045	135.8	0.973
4	187215	135.9	0.973
4	187385	136	0.973
4	187555	136.1	0.973
4	187725	136.2	0.973
4	187888	136.3	0.973
4	188058	136.4	0.973
4	188221	136.5	0.973
4	188384	136.6	0.973
4	188554	136.7	0.973
4	188724	136.8	0.973
4	188894	136.9	0.973
4	189057	137	0.973
4	189227	137.1	0.973
4	189397	137.2	0.973
4	189560	137.3	0.973
4	189730	137.4	0.973
4	189894	137.5	0.973
4	190064	137.6	0.973
4	190234	137.7	0.973
4	190404	137.8	0.973
4	190574	137.9	0.973
4	190737	138	0.973
4	190907	138.1	0.973
4	191077	138.2	0.973
4	191247	138.3	0.973
4	191417	138.4	0.973
4	191580	138.5	0.973
4	191750	138.6	0.973
4	191913	138.7	0.973
4	192083	138.8	0.973
4	192253	138.9	0.973
4	192423	139	0.973
4	192593	139.1	0.973
4	192763	139.2	0.973
4	192933	139.3	0.973
4	193103	139.4	0.973
4	193273	139.5	0.973
4	193436	139.6	0.973
4	193606	139.7	0.973
4	193769	139.8	0.973
4	193939	139.9	0.973
4	194102	140	0.973
4	194272	140.1	0.973
4	194442	140.2	0.973
4	194612	140.3	0.973
4	194782	140.4	0.973
4	194946	140.5	0.973
4	195110	140.6	0.973
4	195280	140.7	0.973
4	195450	140.8	0.973
4	195620	140.9	0.973
4	195784	141	0.973
4	195954	141.1	0.973
4	196124	141.2	0.973
4	196287	141.3	0.973
4	196457	141.4	0.973
4	196627	141.5	0.973
4	196797	141.6	0.973
4	196960	141.7	0.973
4	197130	141.8	0.973
4	197300	141.9	0.973
4	197470	142	0.973
4	197640	142.1	0.973
4	197810	142.2	0.973
4	197973	142.3	0.973
4	198143	142.4	0.973
4	198313	142.5	0.973
4	198476	142.6	0.973
4	198646	142.7	0.973
4	198809	142.8	0.973
4	198979	142.9	0.973
4	199149	143	0.973
4	199319	143.1	0.973
4	199489	143.2	0.973
4	199659	143.3	0.973
4	199822	143.4	0.973
4	199985	143.5	0.973
4	200155	143.6	0.973
4	200325	143.7	0.973
4	200495	143.8	0.973
4	200658	143.9	0.973
4	200828	144	0.973
4	200992	144.1	0.973
4	201162	144.2	0.973
4	201332	144.3	0.973
4	201495	144.4	0.973
4	201659	144.5	0.973
4	201822	144.6	0.973
4	201992	144.7	0.973
4	202162	144.8	0.973
4	202332	144.9	0.973
4	202502	145	0.973
4	202672	145.1	0.973
4	202835	145.2	0.973
4	203005	145.3	0.973
4	203175	145.4	0.973
4	203345	145.5	0.973
4	203508	145.6	0.973
4	203678	145.7	0.973
4	203848	145.8	0.973
4	204011	145.9	0.973
4	204181	146	0.973
4	204351	146.1	0.973
4	204514	146.2	0.973
4	204684	146.3	0.973
4	204854	146.4	0.973
4	205024	146.5	0.973
4	205187	146.6	0.973
4	205357	146.7	0.973
4	205520	146.8	0.973
4	205690	146.9	0.973
4	205854	147	0.973
4	206024	147.1	0.973
4	206194	147.2	0.973
4	206364	147.3	0.973
4	206534	147.4	0.973
4	206704	147.5	0.973
4	206874	147.6	0.973
4	207044	147.7	0.973
4	207214	147.8	0.973
4	207384	147.9	0.973
4	207554	148	0.973
4	207717	148.1	0.973
4	207887	148.2	0.973
4	208057	148.3	0.973
4	208220	148.4	0.973
4	208390	148.5	0.973
4	208560	148.6	0.973
4	208730	148.7	0.973
4	208893	148.8	0.973
4	209063	148.9	0.973
4	209233	149	0.973
4	209403	149.1	0.973
4	209573	149.2	0.973
4	209743	149.3	0.973
4	209913	149.4	0.973
4	210083	149.5	0.973
4	210253	149.6	0.973
4	210416	149.7	0.973
4	210586	149.8	0.973
4	210756	149.9	0.973
4	210920	150	0.973
4	211090	150.1	0.973
4	211254	150.2	0.973
4	211424	150.3	0.973
4	211594	150.4	0.973
4	211757	150.5	0.973
4	211927	150.6	0.973
4	212097	150.7	0.973
4	212267	150.8	0.973
4	212430	150.9	0.973
4	212593	151	0.973
4	212763	151.1	0.973
4	212933	151.2	0.973
4	213103	151.3	0.973
4	213266	151.4	0.973
4	213429	151.5	0.973
4	213593	151.6	0.973
4	213763	151.7	0.973
4	213926	151.8	0.973
4	214096	151.9	0.973
4	214266	152	0.973
4	214436	152.1	0.973
4	214606	152.2	0.973
4	214776	152.3	0.973
4	214946	152.4	0.973
4	215116	152.5	0.973
4	215286	152.6	0.973
4	215449	152.7	0.973
4	215619	152.8	3.56833237888
4	215789	152.9	6.02721903104
4	215959	153	8.48721422976
4	216129	153.1	10.94887224832
4	216293	153.2	1.30887224832
4	216463	153.3	1.30887224832
4	216626	153.4	1.30887224832
4	216789	153.5	1.30887224832
4	216959	153.6	1.30887224832
4	217129	153.7	1.30887224832
4	217299	153.8	1.30887224832
4	217462	153.9	1.30887224832
4	217632	154	1.30887224832
4	217802	154.1	1.30887224832
4	217972	154.2	1.30887224832
4	218135	154.3	1.30887224832
4	218305	154.4	1.30887224832
4	218475	154.5	1.30887224832
4	218638	154.6	1.30887224832
4	218801	154.7	1.30887224832
4	218971	154.8	1.30887224832
4	219134	154.9	1.30887224832
4	219297	155	1.30887224832
4	219461	155.1	1.30887224832
4	219631	155.2	1.30887224832
4	219801	155.3	1.30887224832
4	219971	155.4	1.30887224832
4	220141	155.5	1.30887224832
4	220311	155.6	1.30887224832
4	220481	155.7	1.30887224832
4	220651	155.8	1.30887224832
4	220821	155.9	1.30887224832
4	220984	156	1.30887224832
4	221154	156.1	1.30887224832
4	221324	156.2	1.30887224832
4	221488	156.3	1.30887224832
4	221658	156.4	1.30887224832
4	221828	156.5	1.30887224832
4	221991	156.6	1.30887224832
4	222161	156.7	1.30887224832
4	222325	156.8	1.30887224832
4	222489	156.9	1.30887224832
4	222659	157	1.30887224832
4	222829	157.1	1.30887224832
4	222999	157.2	1.30887224832
4	223169	157.3	1.30887224832
4	223339	157.4	1.30887224832
4	223509	157.5	1.30887224832
4	223679	157.6	1.30887224832
4	223843	157.7	1.30887224832
4	224006	157.8	1.30887224832
4	224176	157.9	1.30887224832
4	224346	158	1.30887224832
4	224509	158.1	1.30887224832
4	224672	158.2	1.30887224832
4	224842	158.3	1.30887224832
4	225012	158.4	1.30887224832
4	225175	158.5	1.30887224832
4	225345	158.6	1.30887224832
4	225515	158.7	1.30887224832
4	225679	158.8	1.30887224832
4	225849	158.9	1.30887224832
4	226019	159	1.30887224832
4	226189	159.1	1.30887224832
4	226359	159.2	1.30887224832
4	226522	159.3	1.30887224832
4	226692	159.4	1.30887224832
4	226862	159.5	1.30887224832
4	227032	159.6	1.30887224832
4	227202	159.7	1.30887224832
4	227372	159.8	1.30887224832
4	227535	159.9	1.30887224832
4	227705	160	1.30887224832
4	227875	160.1	1.30887224832
4	228045	160.2	1.30887224832
4	228208	160.3	1.30887224832
4	228378	160.4	1.30887224832
4	228548	160.5	1.30887224832
4	228718	160.6	1.30887224832
4	228888	160.7	1.30887224832
4	229058	160.8	1.30887224832
4	229228	160.9	1.30887224832
4	229398	161	1.30887224832
4	229561	161.1	1.30887224832
4	229731	161.2	1.30887224832
4	229901	161.3	1.30887224832
4	230071	161.4	1.30887224832
4	230241	161.5	1.30887224832
4	230411	161.6	1.30887224832
4	230575	161.7	1.30887224832
4	230745	161.8	1.30887224832
4	230915	161.9	1.30887224832
4	231078	162	1.30887224832
4	231241	162.1	1.30887224832
4	231404	162.2	1.30887224832
4	231567	162.3	1.30887224832
4	231737	162.4	1.30887224832
4	231900	162.5	1.30887224832
4	232070	162.6	1.30887224832
4	232240	162.7	1.30887224832
4	232403	162.8	1.30887224832
4	232566	162.9	1.30887224832
4	232729	163	1.30887224832
4	232899	163.1	1.30887224832
4	233063	163.2	1.30887224832
4	233233	163.3	1.30887224832
4	233403	163.4	1.30887224832
4	233573	163.5	1.30887224832
4	233743	163.6	1.30887224832
4	233913	163.7	1.30887224832
4	234076	163.8	1.30887224832
4	234246	163.9	1.30887224832
4	234409	164	1.30887224832
4	234573	164.1	1.30887224832
4	234743	164.2	1.30887224832
4	234906	164.3	1.30887224832
4	235076	164.4	1.30887224832
4	235246	164.5	1.30887224832
4	235416	164.6	1.30887224832
4	235586	164.7	1.30887224832
4	235756	164.8	1.30887224832
4	235919	164.9	1.30887224832
4	236089	165	1.30887224832
4	236259	165.1	1.30887224832
4	236429	165.2	1.30887224832
4	236599	165.3	1.30887224832
4	236769	165.4	1.30887224832
4	236939	165.5	1.30887224832
4	237102	165.6	1.30887224832
4	237265	165.7	1.30887224832
4	237435	165.8	1.30887224832
4	237598	165.9	1.30887224832
4	237768	166	1.30887224832
4	237932	166.1	1.30887224832
4	238102	166.2	1.30887224832
4	238265	166.3	1.30887224832
4	238435	166.4	1.30887224832
4	238599	166.5	1.30887224832
4	238762	166.6	1.30887224832
4	238932	166.7	1.30887224832
4	239102	166.8	1.30887224832
4	239272	166.9	1.30887224832
4	239442	167	1.30887224832
4	239612	167.1	1.30887224832
4	239775	167.2	1.30887224832
4	239945	167.3	1.30887224832
4	240115	167.4	1.30887224832
4	240285	167.5	1.30887224832
4	240455	167.6	1.30887224832
4	240625	167.7	1.30887224832
4	240795	167.8	1.30887224832
4	240965	167.9	1.30887224832
4	241135	168	1.30887224832
4	241298	168.1	1.30887224832
4	241468	168.2	1.30887224832
4	241638	168.3	1.30887224832
4	241808	168.4	1.30887224832
4	241978	168.5	1.30887224832
4	242148	168.6	1.30887224832
4	242311	168.7	1.30887224832
4	242481	168.8	1.30887224832
4	242651	168.9	1.30887224832
4	242821	169	1.30887224832
4	242991	169.1	1.30887224832
4	243161	169.2	1.30887224832
4	243324	169.3	1.30887224832
4	243494	169.4	1.30887224832
4	243664	169.5	1.30887224832
4	243834	169.6	1.30887224832
4	244004	169.7	1.30887224832
4	244174	169.8	1.30887224832
4	244344	169.9	1.30887224832
4	244507	170	1.30887224832
4	244677	170.1	1.30887224832
4	244847	170.2	1.30887224832
4	245017	170.3	1.30887224832
4	245180	170.4	1.30887224832
4	245350	170.5	1.30887224832
4	245520	170.6	1.30887224832
4	245690	170.7	1.30887224832
4	245860	170.8	1.30887224832
4	246030	170.9	1.30887224832
4	246200	171	1.30887224832
4	246364	171.1	1.30887224832
4	246534	171.2	1.30887224832
4	246704	171.3	1.30887224832
4	246867	171.4	1.30887224832
4	247037	171.5	1.30887224832
4	247207	171.6	1.30887224832
4	247377	171.7	1.30887224832
4	247547	171.8	1.30887224832
4	247717	171.9	1.30887224832
4	247880	172	1.30887224832
4	248050	172.1	1.30887224832
4	248220	172.2	1.30887224832
4	248383	172.3	1.30887224832
4	248553	172.4	1.30887224832
4	248723	172.5	1.30887224832
4	248893	172.6	1.30887224832
4	249063	172.7	1.30887224832
4	249226	172.8	1.30887224832
4	249396	172.9	1.30887224832
4	249566	173	1.30887224832
4	249730	173.1	1.30887224832
4	249893	173.2	1.30887224832
4	250063	173.3	1.30887224832
4	250233	173.4	1.30887224832
4	250403	173.5	1.30887224832
4	250573	173.6	1.30887224832
4	250743	173.7	1.30887224832
4	250906	173.8	1.30887224832
4	251070	173.9	1.30887224832
4	251240	174	1.30887224832
4	251403	174.1	1.30887224832
4	251573	174.2	1.30887224832
4	251743	174.3	1.30887224832
4	251913	174.4	1.30887224832
4	252083	174.5	1.30887224832
4	252253	174.6	1.30887224832
4	252416	174.7	1.30887224832
4	252586	174.8	1.30887224832
4	252756	174.9	1.30887224832
4	252926	175	1.30887224832
4	253096	175.1	1.30887224832
4	253266	175.2	1.30887224832
4	253436	175.3	1.30887224832
4	253606	175.4	1.30887224832
4	253776	175.5	1.30887224832
4	253946	175.6	1.30887224832
4	254116	175.7	1.30887224832
4	254286	175.8	1.30887224832
4	254449	175.9	1.30887224832
4	254619	176	1.30887224832
4	254782	176.1	1.30887224832
4	254952	176.2	1.30887224832
4	255122	176.3	1.30887224832
4	255292	176.4	1.30887224832
4	255455	176.5	1.30887224832
4	255625	176.6	1.30887224832
4	255795	176.7	1.30887224832
4	255965	176.8	1.30887224832
4	256128	176.9	1.30887224832
4	256298	177	1.30887224832
4	256468	177.1	1.30887224832
4	256638	177.2	1.30887224832
4	256808	177.3	1.30887224832
4	256978	177.4	1.30887224832
4	257148	177.5	1.30887224832
4	257318	177.6	1.30887224832
4	257488	177.7	1.30887224832
4	257658	177.8	1.30887224832
4	257828	177.9	1.30887224832
4	257998	178	1.30887224832
4	258161	178.1	1.30887224832
4	258331	178.2	1.30887224832
4	258501	178.3	1.30887224832
4	258664	178.4	1.30887224832
4	258834	178.5	1.30887224832
4	258997	178.6	1.30887224832
4	259160	178.7	1.30887224832
4	259330	178.8	1.30887224832
4	259493	178.9	1.30887224832
4	259663	179	1.30887224832
4	259827	179.1	1.30887224832
4	259997	179.2	1.30887224832
4	260167	179.3	1.30887224832
4	260330	179.4	1.30887224832
4	260500	179.5	1.30887224832
4	260670	179.6	1.30887224832
4	260840	179.7	1.30887224832
4	261010	179.8	1.30887224832
4	261180	179.9	1.30887224832
4	261350	180	1.30887224832
4	261520	180.1	1.30887224832
4	261683	180.2	1.30887224832
4	261853	180.3	1.30887224832
4	262023	180.4	1.30887224832
4	262193	180.5	1.30887224832
4	262363	180.6	1.30887224832
4	262533	180.7	1.30887224832
4	262703	180.8	1.30887224832
4	262873	180.9	1.30887224832
4	263043	181	1.30887224832
4	263206	181.1	1.30887224832
4	263369	181.2	1.30887224832
4	263532	181.3	1.30887224832
4	263702	181.4	1.30887224832
4	263872	181.5	1.30887224832
4	264042	181.6	1.30887224832
4	264212	181.7	1.30887224832
4	264376	181.8	1.30887224832
4	264546	181.9	1.30887224832
4	264710	182	1.30887224832
4	264880	182.1	1.30887224832
4	265050	182.2	1.30887224832
4	265220	182.3	1.30887224832
4	265390	182.4	1.30887224832
4	265560	182.5	1.30887224832
4	265730	182.6	1.30887224832
4	265900	182.7	1.30887224832
4	266070	182.8	1.30887224832
4	266234	182.9	1.30887224832
4	266404	183	1.30887224832
4	266574	183.1	1.30887224832
4	266744	183.2	1.30887224832
4	266914	183.3	1.30887224832
4	267084	183.4	1.30887224832
4	267247	183.5	1.30887224832
4	267417	183.6	1.30887224832
4	267580	183.7	1.30887224832
4	267750	183.8	1.30887224832
4	267920	183.9	1.30887224832
4	268090	184	1.30887224832
4	268253	184.1	1.30887224832
4	268416	184.2	1.30887224832
4	268579	184.3	1.30887224832
4	268742	184.4	1.30887224832
4	268912	184.5	1.30887224832
4	269075	184.6	1.30887224832
4	269238	184.7	1.30887224832
4	269408	184.8	1.30887224832
4	269578	184.9	1.30887224832
4	269741	185	1.30887224832
4	269911	185.1	1.30887224832
4	270074	185.2	1.30887224832
4	270244	185.3	1.30887224832
4	270414	185.4	1.30887224832
4	270584	185.5	1.30887224832
4	270754	185.6	1.30887224832
4	270924	185.7	1.30887224832
4	271094	185.8	1.30887224832
4	271264	185.9	1.30887224832
4	271434	186	1.30887224832
4	271604	186.1	1.30887224832
4	271774	186.2	1.30887224832
4	271937	186.3	1.30887224832
4	272100	186.4	1.30887224832
4	272270	186.5	1.30887224832
4	272440	186.6	1.30887224832
4	272603	186.7	1.30887224832
4	272766	186.8	1.30887224832
4	272936	186.9	1.30887224832
4	273106	187	1.30887224832
4	273276	187.1	1.30887224832
4	273440	187.2	1.30887224832
4	273610	187.3	1.30887224832
4	273773	187.4	1.30887224832
4	273943	187.5	1.30887224832
4	274106	187.6	1.30887224832
4	274269	187.7	1.30887224832
4	274433	187.8	1.30887224832
4	274603	187.9	1.30887224832
4	274773	188	1.30887224832
4	274943	188.1	1.30887224832
4	275113	188.2	1.30887224832
4	275276	188.3	1.30887224832
4	275446	188.4	1.30887224832
4	275616	188.5	1.30887224832
4	275786	188.6	1.30887224832
4	275956	188.7	1.30887224832
4	276126	188.8	1.30887224832
4	276296	188.9	1.30887224832
4	276466	189	1.30887224832
4	276629	189.1	1.30887224832
4	276799	189.2	1.30887224832
4	276969	189.3	1.30887224832
4	277139	189.4	1.30887224832
4	277302	189.5	1.30887224832
4	277465	189.6	1.30887224832
4	277635	189.7	1.30887224832
4	277805	189.8	1.30887224832
4	277975	189.9	1.30887224832
4	278138	190	1.30887224832
4	278308	190.1	1.30887224832
4	278478	190.2	1.30887224832
4	278648	190.3	1.30887224832
4	278811	190.4	1.30887224832
4	278981	190.5	1.30887224832
4	279151	190.6	1.30887224832
4	279321	190.7	1.30887224832
4	279491	190.8	1.30887224832
4	279661	190.9	1.30887224832
4	279825	191	1.30887224832
4	279995	191.1	1.30887224832
4	280165	191.2	1.30887224832
4	280335	191.3	1.30887224832
4	280499	191.4	1.30887224832
4	280669	191.5	1.30887224832
4	280839	191.6	1.30887224832
4	281009	191.7	1.30887224832
4	281173	191.8	1.30887224832
4	281343	191.9	1.30887224832
4	281513	192	1.30887224832
4	281683	192.1	1.30887224832
4	281853	192.2	0.973
4	282023	192.3	0.973
4	282193	192.4	0.973
4	282363	192.5	0.973
4	282533	192.6	0.973
4	282703	192.7	0.973
4	282867	192.8	0.973
4	283030	192.9	0.973
4	283200	193	0.973
4	283363	193.1	0.973
4	283526	193.2	0.973
4	283696	193.3	0.973
4	283860	193.4	0.973
4	284023	193.5	0.973
4	284193	193.6	0.973
4	284357	193.7	3.56833237888
4	284527	193.8	6.02721903104
4	284691	193.9	8.48721422976
4	284854	194	10.94887224832
4	285024	194.1	1.30887224832
4	285194	194.2	1.30887224832
4	285364	194.3	1.30887224832
4	285534	194.4	1.30887224832
4	285698	194.5	1.30887224832
4	285868	194.6	1.30887224832
4	286031	194.7	1.30887224832
4	286201	194.8	1.30887224832
4	286371	194.9	1.30887224832
4	286534	195	1.30887224832
4	286704	195.1	1.30887224832
4	286874	195.2	1.30887224832
4	287044	195.3	1.30887224832
4	287214	195.4	1.30887224832
4	287384	195.5	1.30887224832
4	287554	195.6	1.30887224832
4	287717	195.7	1.30887224832
4	287887	195.8	1.30887224832
4	288050	195.9	1.30887224832
4	288213	196	1.30887224832
4	288383	196.1	1.30887224832
4	288546	196.2	1.30887224832
4	288716	196.3	1.30887224832
4	288886	196.4	1.30887224832
4	289056	196.5	1.30887224832
4	289226	196.6	1.30887224832
4	289396	196.7	1.30887224832
4	289566	196.8	1.30887224832
4	289729	196.9	1.30887224832
4	289899	197	1.30887224832
4	290069	197.1	1.30887224832
4	290239	197.2	1.30887224832
4	290409	197.3	1.30887224832
4	290579	197.4	1.30887224832
4	290749	197.5	1.30887224832
4	290919	197.6	1.30887224832
4	291082	197.7	1.30887224832
4	291245	197.8	1.30887224832
4	291408	197.9	1.30887224832
4	291571	198	1.30887224832
4	291734	198.1	1.30887224832
4	291904	198.2	1.30887224832
4	292068	198.3	1.30887224832
4	292238	198.4	1.30887224832
4	292402	198.5	1.30887224832
4	292565	198.6	1.30887224832
4	292735	198.7	1.30887224832
4	292898	198.8	1.30887224832
4	293068	198.9	1.30887224832
4	293238	199	1.30887224832
4	293408	199.1	1.30887224832
4	293571	199.2	1.30887224832
4	293734	199.3	1.30887224832
4	293897	199.4	1.30887224832
4	294060	199.5	1.30887224832
4	294230	199.6	1.30887224832
4	294400	199.7	1.30887224832
4	294570	199.8	1.30887224832
4	294740	199.9	1.30887224832
4	294910	200	1.30887224832
4	295080	200.1	1.30887224832
4	295250	200.2	1.30887224832
4	295413	200.3	1.30887224832
4	295583	200.4	1.30887224832
4	295753	200.5	1.30887224832
4	295923	200.6	1.30887224832
4	296093	200.7	1.30887224832
4	296263	200.8	1.30887224832
4	296433	200.9	1.30887224832
4	296596	201	1.30887224832
4	296766	201.1	1.30887224832
4	296929	201.2	1.30887224832
4	297092	201.3	1.30887224832
4	297255	201.4	1.30887224832
4	297418	201.5	1.30887224832
4	297588	201.6	1.30887224832
4	297758	201.7	1.30887224832
4	297928	201.8	1.30887224832
4	298098	201.9	1.30887224832
4	298261	202	1.30887224832
4	298431	202.1	1.30887224832
4	298594	202.2	1.30887224832
4	298764	202.3	1.30887224832
4	298934	202.4	1.30887224832
4	299104	202.5	1.30887224832
4	299274	202.6	1.30887224832
4	299444	202.7	1.30887224832
4	299614	202.8	1.30887224832
4	299784	202.9	1.30887224832
4	299947	203	1.30887224832
4	300117	203.1	0.973
4	300280	203.2	0.973
4	300450	203.3	0.973
4	300620	203.4	0.973
4	300790	203.5	0.973
4	300960	203.6	0.973
4	301130	203.7	0.973
4	301293	203.8	0.973
4	301456	203.9	0.973
4	301626	204	0.973
4	301796	204.1	0.973
4	301966	204.2	0.973
4	302136	204.3	0.973
4	302306	204.4	0.973
4	302476	204.5	0.973
4	302639	204.6	0.973
4	302809	204.7	0.973
4	302979	204.8	0.973
4	303149	204.9	0.973
4	303319	205	0.973
4	303489	205.1	0.973
4	303659	205.2	0.973
4	303829	205.3	0.973
4	303999	205.4	0.973
4	304169	205.5	0.973
4	304332	205.6	0.973
4	304502	205.7	0.973
4	304672	205.8	0.973
4	304835	205.9	0.973
4	304998	206	0.973
4	305162	206.1	0.973
4	305332	206.2	0.973
4	305502	206.3	0.973
4	305672	206.4	0.973
4	305842	206.5	0.973
4	306005	206.6	0.973
4	306169	206.7	0.973
4	306332	206.8	0.973
4	306495	206.9	0.973
4	306658	207	0.973
4	306821	207.1	0.973
4	306991	207.2	0.973
4	307161	207.3	0.973
4	307324	207.4	0.973
4	307487	207.5	0.973
4	307657	207.6	0.973
4	307827	207.7	0.973
4	307991	207.8	0.973
4	308161	207.9	0.973
4	308331	208	0.973
4	308501	208.1	0.973
4	308664	208.2	0.973
4	308834	208.3	0.973
4	308997	208.4	0.973
4	309160	208.5	0.973
4	309323	208.6	0.973
4	309487	208.7	0.973
4	309657	208.8	0.973
4	309827	208.9	0.973
4	309997	209	0.973
4	310167	209.1	0.973
4	310337	209.2	0.973
4	310507	209.3	0.973
4	310670	209.4	0.973
4	310833	209.5	0.973
4	311003	209.6	0.973
4	311173	209.7	0.973
4	311337	209.8	0.973
4	311507	209.9	0.973
4	311677	210	0.973
4	311841	210.1	0.973
4	312004	210.2	0.973
4	312174	210.3	0.973
4	312338	210.4	0.973
4	312502	210.5	0.973
4	312672	210.6	0.973
4	312842	210.7	0.973
4	313012	210.8	0.973
4	313182	210.9	0.973
4	313352	211	0.973
4	313522	211.1	0.973
4	313692	211.2	0.973
4	313862	211.3	0.973
4	314032	211.4	0.973
4	314202	211.5	0.973
4	314365	211.6	0.973
4	314528	211.7	0.973
4	314698	211.8	0.973
4	314868	211.9	0.973
4	315032	212	0.973
4	315202	212.1	0.973
4	315372	212.2	0.973
4	315542	212.3	0.973
4	315712	212.4	0.973
4	315875	212.5	0.973
4	316038	212.6	0.973
4	316208	212.7	0.973
4	316378	212.8	0.973
4	316541	212.9	0.973
4	316704	213	0.973
4	316874	213.1	0.973
4	317044	213.2	0.973
4	317214	213.3	0.973
4	317384	213.4	0.973
4	317554	213.5	0.973
4	317724	213.6	0.973
4	317887	213.7	0.973
4	318051	213.8	0.973
4	318221	213.9	0.973
4	318391	214	0.973
4	318561	214.1	0.973
4	318731	214.2	0.973
4	318894	214.3	0.973
4	319064	214.4	0.973
4	319234	214.5	0.973
4	319404	214.6	0.973
4	319574	214.7	0.973
4	319744	214.8	0.973
4	319914	214.9	0.973
4	320077	215	0.973
4	320247	215.1	0.973
4	320417	215.2	0.973
4	320587	215.3	0.973
4	320757	215.4	0.973
4	320921	215.5	0.973
4	321091	215.6	0.973
4	321261	215.7	0.973
4	321431	215.8	0.973
4	321594	215.9	0.973
4	321757	216	0.973
4	321927	216.1	0.973
4	322090	216.2	0.973
4	322260	216.3	0.973
4	322430	216.4	0.973
4	322600	216.5	0.973
4	322763	216.6	0.973
4	322933	216.7	0.973
4	323103	216.8	0.973
4	323273	216.9	0.973
4	323443	217	0.973
4	323613	217.1	0.973
4	323776	217.2	0.973
4	323946	217.3	0.973
4	324116	217.4	0.973
4	324279	217.5	0.973
4	324449	217.6	0.973
4	324619	217.7	0.973
4	324789	217.8	0.973
4	324959	217.9	0.973
4	325122	218	0.973
4	325292	218.1	0.973
4	325455	218.2	0.973
4	325618	218.3	0.973
4	325782	218.4	0.973
4	325952	218.5	0.973
4	326122	218.6	0.973
4	326285	218.7	0.973
4	326455	218.8	0.973
4	326625	218.9	0.973
4	326795	219	0.973
4	326965	219.1	0.973
4	327128	219.2	0.973
4	327298	219.3	0.973
4	327468	219.4	0.973
4	327631	219.5	0.973
4	327801	219.6	0.973
4	327971	219.7	0.973
4	328141	219.8	0.973
4	328311	219.9	0.973
4	328481	220	0.973
4	328651	220.1	0.973
4	328814	220.2	0.973
4	328984	220.3	0.973
4	329147	220.4	0.973
4	329310	220.5	0.973
4	329473	220.6	0.973
4	329643	220.7	3.56833237888
4	329813	220.8	6.02721903104
4	329983	220.9	8.48721422976
4	330147	221	10.94887224832
4	330317	221.1	1.30887224832
4	330480	221.2	1.30887224832
4	330643	221.3	1.30887224832
4	330806	221.4	1.30887224832
4	330976	221.5	1.30887224832
4	331146	221.6	1.30887224832
4	331309	221.7	1.30887224832
4	331479	221.8	1.30887224832
4	331642	221.9	1.30887224832
4	331812	222	1.30887224832
4	331975	222.1	1.30887224832
4	332138	222.2	1.30887224832
4	332308	222.3	1.30887224832
4	332471	222.4	1.30887224832
4	332641	222.5	1.30887224832
4	332811	222.6	1.30887224832
4	332981	222.7	1.30887224832
4	333151	222.8	1.30887224832
4	333321	222.9	1.30887224832
4	333491	223	1.30887224832
4	333654	223.1	1.30887224832
4	333824	223.2	1.30887224832
4	333994	223.3	1.30887224832
4	334157	223.4	1.30887224832
4	334320	223.5	1.30887224832
4	334483	223.6	1.30887224832
4	334653	223.7	1.30887224832
4	334823	223.8	1.30887224832
4	334986	223.9	1.30887224832
4	335150	224	1.30887224832
4	335320	224.1	1.30887224832
4	335483	224.2	1.30887224832
4	335646	224.3	1.30887224832
4	335796	224.4	1.30887224832
4	335940	224.5	1.30887224832
4	336090	224.6	1.30887224832
4	336234	224.7	1.30887224832
4	336384	224.8	1.30887224832
4	336527	224.9	1.30887224832
4	336677	225	1.30887224832
4	336827	225.1	1.30887224832
4	336977	225.2	1.30887224832
4	337127	225.3	1.30887224832
4	337277	225.4	1.30887224832
4	337427	225.5	1.30887224832
4	337577	225.6	1.30887224832
4	337727	225.7	1.30887224832
4	337877	225.8	1.30887224832
4	338027	225.9	1.30887224832
4	338177	226	1.30887224832
4	338320	226.1	1.30887224832
4	338470	226.2	1.30887224832
4	338620	226.3	1.30887224832
4	338770	226.4	1.30887224832
4	338920	226.5	1.30887224832
4	339070	226.6	1.30887224832
4	339213	226.7	1.30887224832
4	339363	226.8	1.30887224832
4	339506	226.9	1.30887224832
4	339649	227	1.30887224832
4	339792	227.1	1.30887224832
4	339942	227.2	1.30887224832
4	340085	227.3	1.30887224832
4	340235	227.4	1.30887224832
4	340379	227.5	1.30887224832
4	340522	227.6	1.30887224832
4	340672	227.7	1.30887224832
4	340815	227.8	1.30887224832
4	340958	227.9	1.30887224832
4	341108	228	1.30887224832
4	341258	228.1	1.30887224832
4	341401	228.2	1.30887224832
4	341551	228.3	1.30887224832
4	341701	228.4	1.30887224832
4	341845	228.5	1.30887224832
4	341995	228.6	1.30887224832
4	342145	228.7	1.30887224832
4	342295	228.8	1.30887224832
4	342445	228.9	1.30887224832
4	342595	229	1.30887224832
4	342738	229.1	1.30887224832
4	342888	229.2	1.30887224832
4	343038	229.3	1.30887224832
4	343188	229.4	1.30887224832
4	343338	229.5	1.30887224832
4	343488	229.6	1.30887224832
4	343638	229.7	1.30887224832
4	343788	229.8	1.30887224832
4	343938	229.9	1.30887224832
4	344088	230	1.30887224832
4	344231	230.1	1.30887224832
4	344374	230.2	1.30887224832
4	344524	230.3	1.30887224832
4	344667	230.4	1.30887224832
4	344817	230.5	1.30887224832
4	344967	230.6	1.30887224832
4	345110	230.7	1.30887224832
4	345253	230.8	1.30887224832
4	345397	230.9	1.30887224832
4	345547	231	1.30887224832
4	345690	231.1	1.30887224832
4	345833	231.2	1.30887224832
4	345983	231.3	1.30887224832
4	346133	231.4	1.30887224832
4	346283	231.5	1.30887224832
4	346427	231.6	1.30887224832
3	5195	4.1	0
3	5365	4.2	0
3	5515	4.3	0
3	5664	4.4	0
3	5807	4.5	0
3	5957	4.6	0
3	6100	4.7	0
3	6243	4.8	0
3	6386	4.9	0
3	6529	5	0
3	6659	5.1	0
3	6789	5.2	0
3	6913	5.3	0
3	7063	5.4	0
3	7206	5.5	-10
3	7329	5.6	-10
3	7459	5.7	-10
3	7583	5.8	-10
3	7733	5.9	-10
3	7876	6	-10
3	8026	6.1	-10
3	8176	6.2	-10
3	8326	6.3	-10
3	8469	6.4	-10
3	8612	6.5	-10
3	8762	6.6	-10
3	8904	6.7	-10
3	9034	6.8	-10
3	9164	6.9	-10
3	9294	7	-5.0540700000004
3	9424	7.1	0
3	9554	7.2	0
3	9684	7.3	0
3	9814	7.4	0
3	9944	7.5	0
3	10074	7.6	0
3	10204	7.7	0
3	10327	7.8	0
3	10457	7.9	0
3	10587	8	0
3	10717	8.1	0
3	10847	8.2	0
3	10977	8.3	0
3	11107	8.4	0
3	11237	8.5	0
3	11367	8.6	0
3	11497	8.7	0
3	11627	8.8	0
3	11750	8.9	0
3	11880	9	0
3	12003	9.1	0
3	12133	9.2	0
3	12263	9.3	0
3	12393	9.4	0
3	12523	9.5	0
3	12653	9.6	0
3	12783	9.7	0
3	12913	9.8	0
3	13043	9.9	0
3	13173	10	0
3	13296	10.1	0
3	13426	10.2	0
3	13556	10.3	0
3	13679	10.4	0
3	13809	10.5	0
3	13939	10.6	0
3	14069	10.7	0
3	14199	10.8	0
3	14329	10.9	0
3	14459	11	0
3	14589	11.1	0
3	14712	11.2	0
3	14842	11.3	0
3	14965	11.4	0
3	15095	11.5	0
3	15225	11.6	0
3	15349	11.7	0
3	15472	11.8	0
3	15602	11.9	0
3	15732	12	0
3	15855	12.1	0
3	15985	12.2	0
3	16115	12.3	0
3	16245	12.4	0
3	16375	12.5	0
3	16498	12.6	0
3	16621	12.7	0
3	16752	12.8	0
3	16902	12.9	0
3	17052	13	0
3	17202	13.1	0
3	17351	13.2	0
3	17481	13.3	0
3	17611	13.4	0
3	17742	13.5	0
3	17892	13.6	0
3	18035	13.7	0
3	18185	13.8	0
3	18335	13.9	0
3	18478	14	0
3	18627	14.1	0
3	18757	14.2	0
3	18887	14.3	0
3	19011	14.4	0
3	19161	14.5	0
3	19311	14.6	0
3	19455	14.7	0
3	19605	14.8	0
3	19754	14.9	0
3	19884	15	0
3	20014	15.1	0
3	20145	15.2	0
3	20295	15.3	0
3	20445	15.4	0
3	20588	15.5	0
3	20738	15.6	0
3	20888	15.7	0
3	21030	15.8	0
3	21160	15.9	0
3	21283	16	0
3	21407	16.1	0
3	21550	16.2	0
3	21693	16.3	0
3	21836	16.4	0
3	21979	16.5	0
3	22129	16.6	0
3	22278	16.7	0
3	22408	16.8	0
3	22539	16.9	0
3	22689	17	0
3	22839	17.1	0
3	22989	17.2	0
3	23181	17.3	0
3	23350	17.4	0
3	23499	17.5	0
3	23622	17.6	0
3	23794	17.7	0
3	23944	17.8	0
3	24094	17.9	0
3	24243	18	0
3	24373	18.1	0
3	24503	18.2	0
3	24675	18.3	0
3	24824	18.4	0
3	24947	18.5	0
3	25070	18.6	0
3	25242	18.7	0
3	25391	18.8	0
3	25521	18.9	0
3	25651	19	0
3	25781	19.1	0
3	25904	19.2	0
3	26069	19.3	0
3	26218	19.4	0
3	26341	19.5	0
3	26471	19.6	0
3	26601	19.7	0
3	26731	19.8	0
3	26861	19.9	0
3	26991	20	0
3	27121	20.1	0
3	27251	20.2	0
3	27381	20.3	0
3	27511	20.4	0
3	27641	20.5	0
3	27771	20.6	0
3	27901	20.7	10
3	28031	20.8	10
3	28161	20.9	10
3	28291	21	10
3	28415	21.1	10
3	28545	21.2	10
3	28688	21.3	10
3	28831	21.4	10
3	28974	21.5	10
3	29117	21.6	10
3	29267	21.7	10
3	29391	21.8	10
3	29521	21.9	10
3	29651	22	10
3	29801	22.1	10
3	29944	22.2	0.76013168532791
3	30094	22.3	-10
3	30244	22.4	-10
3	30388	22.5	-10
3	30538	22.6	-10
3	30681	22.7	-10
3	30804	22.8	-4
3	30934	22.9	10
3	31064	23	10
3	31207	23.1	10
3	31357	23.2	10
3	31507	23.3	10
3	31630	23.4	8.2939383146725
3	31760	23.5	0
3	31890	23.6	0
3	32020	23.7	0
3	32150	23.8	0
3	32280	23.9	0
3	32403	24	0
3	32533	24.1	0
3	32656	24.2	-0.38294
3	32786	24.3	-10
3	32936	24.4	-10
3	33086	24.5	-10
3	33236	24.6	-10
3	33386	24.7	-10
3	33529	24.8	-10
3	33679	24.9	-10
3	33829	25	-10
3	33972	25.1	-2.0000000000003
3	34122	25.2	-10
3	34252	25.3	-10
3	34375	25.4	-10
3	34505	25.5	-10
3	34635	25.6	-10
3	34765	25.7	-10
3	34895	25.8	-10
3	35025	25.9	-2.6711300000001
3	35155	26	0
3	35285	26.1	0
3	35409	26.2	0
3	35539	26.3	0
3	35662	26.4	0
3	35785	26.5	0
3	35915	26.6	0
3	36045	26.7	0
3	36168	26.8	0
3	36298	26.9	0
3	36428	27	0
3	36558	27.1	0
3	36688	27.2	0
3	36818	27.3	0
3	36948	27.4	0
3	37078	27.5	0
3	37201	27.6	0
3	37331	27.7	0
3	37461	27.8	0
3	37591	27.9	0
3	37714	28	0
3	37844	28.1	0
3	37974	28.2	0
3	38104	28.3	0
3	38234	28.4	0
3	38364	28.5	0
3	38494	28.6	0
3	38624	28.7	0
3	38754	28.8	0
3	38884	28.9	0
3	39014	29	0
3	39144	29.1	0
3	39274	29.2	0
3	39404	29.3	0
3	39534	29.4	0
3	39664	29.5	0
3	39836	29.6	0
3	39978	29.7	0
3	40108	29.8	0
3	40238	29.9	0
3	40361	30	0
3	40484	30.1	0
3	40649	30.2	0
3	40798	30.3	0
3	40928	30.4	0
3	41051	30.5	0
3	41223	30.6	0
3	41372	30.7	0
3	41502	30.8	0
3	41632	30.9	0
3	41762	31	0
3	41885	31.1	0
3	42051	31.2	0
3	42200	31.3	0
3	42330	31.4	0
3	42460	31.5	0
3	42632	31.6	0
3	42781	31.7	0
3	42911	31.8	0
3	43041	31.9	0
3	43171	32	0
3	43294	32.1	0
3	43466	32.2	0
3	43615	32.3	0
3	43745	32.4	0
3	43875	32.5	0
3	44005	32.6	0
3	44135	32.7	0
3	44265	32.8	0
3	44395	32.9	0
3	44525	33	0
3	44648	33.1	0
3	44772	33.2	0
3	44902	33.3	0
3	45025	33.4	0
3	45155	33.5	0
3	45285	33.6	0
3	45415	33.7	0
3	45545	33.8	0
3	45668	33.9	0
3	45798	34	0
3	45921	34.1	0
3	46051	34.2	0
3	46181	34.3	0
3	46304	34.4	0
3	46427	34.5	0
3	46557	34.6	0
3	46687	34.7	0
3	46810	34.8	0
3	46940	34.9	0
3	47070	35	0
3	47200	35.1	0
3	47330	35.2	0
3	47460	35.3	0
3	47590	35.4	0
3	47720	35.5	0
3	47850	35.6	0
3	47980	35.7	0
3	48110	35.8	0
3	48233	35.9	0
3	48363	36	0
3	48493	36.1	0
3	48623	36.2	0
3	48753	36.3	0
3	48883	36.4	0
3	49013	36.5	0
3	49143	36.6	0
3	49266	36.7	0
3	49396	36.8	0
3	49519	36.9	0
3	49649	37	0
3	49772	37.1	0
3	49902	37.2	0
3	50032	37.3	0
3	50162	37.4	0
3	50292	37.5	0
3	50422	37.6	0
3	50552	37.7	0
3	50682	37.8	0
3	50812	37.9	0
3	50942	38	0
3	51072	38.1	0
3	51202	38.2	0
3	51332	38.3	0
3	51462	38.4	0
3	51592	38.5	0
3	51722	38.6	0
3	51852	38.7	0
3	51982	38.8	0
3	52112	38.9	0
3	52242	39	0
3	52372	39.1	0
3	52495	39.2	0
3	52625	39.3	0
3	52755	39.4	0
3	52879	39.5	0
3	53002	39.6	0
3	53125	39.7	0
3	53255	39.8	0
3	53378	39.9	0
3	53508	40	0
3	53638	40.1	0
3	53768	40.2	0
3	53898	40.3	0
3	54028	40.4	0
3	54158	40.5	0
3	54288	40.6	0
3	54418	40.7	0
3	54548	40.8	0
3	54678	40.9	0
3	54801	41	0
3	54931	41.1	0
3	55061	41.2	0
3	55191	41.3	0
3	55321	41.4	0
3	55451	41.5	0
3	55574	41.6	0
3	55704	41.7	0
3	55834	41.8	0
3	55957	41.9	0
3	56080	42	0
3	56210	42.1	0
3	56340	42.2	0
3	56470	42.3	0
3	56593	42.4	0
3	56716	42.5	0
3	56846	42.6	0
3	56970	42.7	0
3	57100	42.8	0
3	57223	42.9	0
3	57353	43	0
3	57483	43.1	0
3	57606	43.2	0
3	57736	43.3	0
3	57859	43.4	0
3	57989	43.5	0
3	58119	43.6	0
3	58249	43.7	0
3	58379	43.8	0
3	58509	43.9	0
3	58639	44	0
3	58762	44.1	0
3	58892	44.2	0
3	59022	44.3	0
3	59152	44.4	0
3	59275	44.5	0
3	59398	44.6	0
3	59528	44.7	0
3	59658	44.8	0
3	59788	44.9	0
3	59918	45	0
3	60048	45.1	0
3	60178	45.2	0
3	60308	45.3	0
3	60438	45.4	0
3	60568	45.5	0
3	60698	45.6	0
3	60821	45.7	0
3	60951	45.8	0
3	61081	45.9	0
3	61211	46	0
3	61341	46.1	0
3	61471	46.2	0
3	61601	46.3	0
3	61731	46.4	0
3	61861	46.5	0
3	61984	46.6	0
3	62114	46.7	0
3	62244	46.8	0
3	62367	46.9	0
3	62490	47	0
3	62620	47.1	0
3	62743	47.2	0
3	62873	47.3	0
3	62996	47.4	0
3	63126	47.5	0
3	63256	47.6	0
3	63380	47.7	0
3	63503	47.8	0
3	63633	47.9	0
3	63756	48	0
3	63886	48.1	0
3	64017	48.2	0
3	64167	48.3	0
3	64317	48.4	0
3	64466	48.5	0
3	64596	48.6	0
3	64726	48.7	0
3	64850	48.8	0
3	65000	48.9	0
3	65143	49	0
3	65286	49.1	0
3	65436	49.2	0
3	65586	49.3	0
3	65728	49.4	0
3	65858	49.5	0
3	65988	49.6	0
3	66119	49.7	0
3	66269	49.8	0
3	66411	49.9	0
3	66541	50	0
3	66671	50.1	0
3	66801	50.2	10
3	66931	50.3	10
3	67061	50.4	10
3	67184	50.5	10
3	67314	50.6	10
3	67444	50.7	10
3	67574	50.8	10
3	67705	50.9	2.6711300000001
3	67855	51	0
3	68004	51.1	0
3	68127	51.2	0
3	68257	51.3	0
3	68388	51.4	0
3	68558	51.5	0
3	68728	51.6	0
3	68891	51.7	0
3	69054	51.8	0
3	69224	51.9	0
3	69393	52	0
3	69543	52.1	0
3	69686	52.2	0
3	69837	52.3	0
3	70007	52.4	0
3	70170	52.5	0
3	70340	52.6	0
3	70503	52.7	0
3	70673	52.8	0
3	70842	52.9	0
3	70972	53	0
3	71095	53.1	0
3	71225	53.2	0
3	71348	53.3	0
3	71478	53.4	0
3	71601	53.5	0
3	71731	53.6	0
3	71861	53.7	0
3	71991	53.8	0
3	72121	53.9	0
3	72244	54	0
3	72374	54.1	0
3	72497	54.2	0
3	72628	54.3	0
3	72778	54.4	0
3	72921	54.5	0
3	73064	54.6	0
3	73214	54.7	0
3	73364	54.8	0
3	73533	54.9	0
3	73683	55	0
3	73834	55.1	0
3	74004	55.2	0
3	74174	55.3	0
3	74324	55.4	0
3	74474	55.5	0
3	74624	55.6	0
3	74773	55.7	0
3	74903	55.8	0
3	75046	55.9	0
3	75197	56	0
3	75367	56.1	0
3	75537	56.2	0
3	75707	56.3	0
3	75877	56.4	0
3	76047	56.5	0
3	76216	56.6	0
3	76366	56.7	0
3	76509	56.8	0
3	76653	56.9	0
3	76816	57	0
3	76966	57.1	0
3	77116	57.2	0
3	77266	57.3	0
3	77415	57.4	0
3	77538	57.5	0
3	77661	57.6	0
3	77812	57.7	0
3	77975	57.8	0
3	78145	57.9	0
3	78315	58	0
3	78485	58.1	0
3	78655	58.2	0
3	78824	58.3	0
3	78967	58.4	0
3	79117	58.5	0
3	79268	58.6	0
3	79438	58.7	0
3	79588	58.8	0
3	79731	58.9	0
3	79881	59	0
3	80031	59.1	0
3	80180	59.2	0
3	80310	59.3	0
3	80461	59.4	0
3	80631	59.5	0
3	80801	59.6	0
3	80970	59.7	0
3	81113	59.8	0
3	81263	59.9	0
3	81413	60	0
3	81563	60.1	0
3	81713	60.2	0
3	81863	60.3	0
3	82013	60.4	0
3	82136	60.5	0
3	82266	60.6	0
3	82396	60.7	0
3	82519	60.8	0
3	82649	60.9	0
3	82779	61	0
3	82929	61.1	0
3	83072	61.2	0
3	83222	61.3	0
3	83372	61.4	0
3	83522	61.5	0
3	83665	61.6	0
3	83808	61.7	0
3	83958	61.8	0
3	84108	61.9	0
3	84251	62	0
3	84401	62.1	0
3	84544	62.2	0
3	84674	62.3	0
3	84804	62.4	0
3	84934	62.5	0
3	85064	62.6	0
3	85194	62.7	0
3	85344	62.8	0
3	85494	62.9	0
3	85644	63	0
3	85794	63.1	0
3	85944	63.2	-10
3	86074	63.3	-10
3	86204	63.4	-10
3	86327	63.5	-10
3	86450	63.6	-10
3	86580	63.7	-10
3	86710	63.8	-10
3	86833	63.9	-2.6711300000001
3	86963	64	0
3	87093	64.1	0
3	87223	64.2	0
3	87346	64.3	0
3	87476	64.4	0
3	87606	64.5	0
3	87736	64.6	0
3	87859	64.7	0
3	87982	64.8	0
3	88112	64.9	0
3	88242	65	0
3	88372	65.1	0
3	88502	65.2	0
3	88632	65.3	0
3	88762	65.4	0
3	88892	65.5	0
3	89022	65.6	0
3	89152	65.7	0
3	89282	65.8	0
3	89412	65.9	0
3	89542	66	0
3	89672	66.1	0
3	89795	66.2	0
3	89925	66.3	0
3	90055	66.4	0
3	90185	66.5	0
3	90308	66.6	0
3	90438	66.7	0
3	90568	66.8	0
3	90698	66.9	0
3	90828	67	0
3	90958	67.1	0
3	91088	67.2	0
3	91211	67.3	0
3	91341	67.4	0
3	91464	67.5	0
3	91594	67.6	0
3	91724	67.7	0
3	91854	67.8	0
3	91977	67.9	0
3	92107	68	0
3	92237	68.1	0
3	92367	68.2	0
3	92497	68.3	0
3	92627	68.4	0
3	92757	68.5	0
3	92880	68.6	0
3	93010	68.7	0
3	93140	68.8	0
3	93263	68.9	0
3	93393	69	0
3	93523	69.1	0
3	93646	69.2	0
3	93776	69.3	0
3	93906	69.4	0
3	94029	69.5	0
3	94159	69.6	0
3	94289	69.7	0
3	94419	69.8	0
3	94549	69.9	0
3	94679	70	0
3	94802	70.1	0
3	94925	70.2	0
3	95055	70.3	0
3	95185	70.4	0
3	95315	70.5	0
3	95445	70.6	0
3	95575	70.7	0
3	95698	70.8	0
3	95821	70.9	0
3	95951	71	0
3	96081	71.1	0
3	96204	71.2	0
3	96334	71.3	0
3	96457	71.4	0
3	96587	71.5	0
3	96710	71.6	0
3	96840	71.7	0
3	96970	71.8	0
3	97093	71.9	0
3	97223	72	0
3	97353	72.1	0
3	97483	72.2	0
3	97606	72.3	0
3	97729	72.4	0
3	97859	72.5	0
3	97982	72.6	0
3	98112	72.7	0
3	98242	72.8	0
3	98365	72.9	0
3	98495	73	0
3	98625	73.1	0
3	98755	73.2	0
3	98878	73.3	0
3	99008	73.4	0
3	99131	73.5	0
3	99261	73.6	0
3	99391	73.7	0
3	99521	73.8	0
3	99644	73.9	0
3	99774	74	0
3	99904	74.1	0
3	100034	74.2	0
3	100157	74.3	0
3	100287	74.4	0
3	100417	74.5	0
3	100540	74.6	0
3	100670	74.7	0
3	100793	74.8	0
3	100916	74.9	0
3	101046	75	0
3	101176	75.1	0
3	101306	75.2	0
3	101436	75.3	0
3	101566	75.4	0
3	101696	75.5	0
3	101826	75.6	0
3	101956	75.7	0
3	102086	75.8	0
3	102209	75.9	0
3	102332	76	0
3	102455	76.1	0
3	102578	76.2	0
3	102701	76.3	0
3	102824	76.4	0
3	102954	76.5	0
3	103077	76.6	0
3	103207	76.7	0
3	103337	76.8	0
3	103467	76.9	0
3	103597	77	0
3	103720	77.1	0
3	103850	77.2	0
3	103980	77.3	0
3	104110	77.4	0
3	104233	77.5	0
3	104363	77.6	0
3	104493	77.7	0
3	104623	77.8	0
3	104753	77.9	0
3	104876	78	0
3	105006	78.1	0
3	105136	78.2	0
3	105266	78.3	0
3	105396	78.4	0
3	105519	78.5	0
3	105649	78.6	0
3	105772	78.7	0
3	105902	78.8	0
3	106032	78.9	0
3	106162	79	0
3	106292	79.1	0
3	106422	79.2	0
3	106552	79.3	0
3	106682	79.4	0
3	106812	79.5	0
3	106935	79.6	0
3	107065	79.7	0
3	107195	79.8	0
3	107325	79.9	0
3	107455	80	0
3	107585	80.1	0
3	107715	80.2	0
3	107838	80.3	0
3	107968	80.4	0
3	108091	80.5	0
3	108214	80.6	0
3	108344	80.7	0
3	108467	80.8	0
3	108597	80.9	0
3	108727	81	0
3	108857	81.1	0
3	108987	81.2	0
3	109117	81.3	0
3	109247	81.4	0
3	109377	81.5	0
3	109507	81.6	0
3	109637	81.7	0
3	109760	81.8	0
3	109890	81.9	0
3	110020	82	0
3	110143	82.1	0
3	110273	82.2	0
3	110403	82.3	0
3	110526	82.4	0
3	110656	82.5	0
3	110786	82.6	0
3	110916	82.7	0
3	111039	82.8	0
3	111162	82.9	0
3	111292	83	0
3	111422	83.1	0
3	111552	83.2	0
3	111682	83.3	0
3	111812	83.4	0
3	111935	83.5	0
3	112065	83.6	0
3	112195	83.7	0
3	112318	83.8	0
3	112441	83.9	0
3	112571	84	0
3	112694	84.1	0
3	112824	84.2	0
3	112955	84.3	0
3	113105	84.4	0
3	113255	84.5	0
3	113397	84.6	0
3	113527	84.7	0
3	113657	84.8	0
3	113787	84.9	0
3	113911	85	0
3	114061	85.1	0
3	114211	85.2	0
3	114361	85.3	0
3	114504	85.4	0
3	114653	85.5	0
3	114783	85.6	0
3	114913	85.7	0
3	115044	85.8	0
3	115194	85.9	0
3	115343	86	0
3	115473	86.1	0
3	115603	86.2	0
3	115733	86.3	0
3	115863	86.4	0
3	115993	86.5	0
3	116116	86.6	0
3	116239	86.7	0
3	116362	86.8	0
3	116492	86.9	0
3	116623	87	0
3	116766	87.1	0
3	116916	87.2	0
3	117065	87.3	0
3	117195	87.4	0
3	117319	87.5	0
3	117469	87.6	0
3	117619	87.7	0
3	117769	87.8	10
3	117919	87.9	10
3	118069	88	10
3	118218	88.1	10
3	118341	88.2	10
3	118471	88.3	10
3	118602	88.4	10
3	118752	88.5	2.6711300000001
3	118902	88.6	0
3	119052	88.7	0
3	119202	88.8	0
3	119352	88.9	0
3	119501	89	0
3	119651	89.1	0
3	119795	89.2	0
3	119958	89.3	0
3	120128	89.4	0
3	120291	89.5	0
3	120461	89.6	0
3	120631	89.7	0
3	120780	89.8	0
3	120923	89.9	0
3	121073	90	0
3	121224	90.1	0
3	121394	90.2	0
3	121564	90.3	0
3	121734	90.4	0
3	121904	90.5	0
3	122054	90.6	0
3	122203	90.7	0
3	122333	90.8	0
3	122463	90.9	0
3	122594	91	0
3	122744	91.1	0
3	122894	91.2	0
3	123044	91.3	0
3	123194	91.4	0
3	123343	91.5	0
3	123473	91.6	0
3	123596	91.7	0
3	123726	91.8	0
3	123850	91.9	0
3	124000	92	0
3	124143	92.1	0
3	124292	92.2	0
3	124422	92.3	0
3	124552	92.4	0
3	124682	92.5	0
3	124812	92.6	0
3	124942	92.7	0
3	125072	92.8	0
3	125195	92.9	0
3	125325	93	0
3	125455	93.1	0
3	125585	93.2	0
3	125715	93.3	0
3	125845	93.4	0
3	125975	93.5	0
3	126105	93.6	0
3	126235	93.7	0
3	126365	93.8	0
3	126496	93.9	0
3	126646	94	0
3	126796	94.1	0
3	126939	94.2	0
3	127089	94.3	0
3	127239	94.4	0
3	127389	94.5	0
3	127532	94.6	0
3	127682	94.7	0
3	127832	94.8	0
3	127981	94.9	0
3	128104	95	0
3	128234	95.1	0
3	128364	95.2	0
3	128487	95.3	0
3	128617	95.4	0
3	128740	95.5	0
3	128870	95.6	0
3	129000	95.7	0
3	129130	95.8	0
3	129260	95.9	0
3	129390	96	0
3	129520	96.1	0
3	129644	96.2	0
3	129787	96.3	0
3	129937	96.4	0
3	130087	96.5	0
3	130237	96.6	0
3	130380	96.7	0
3	130530	96.8	0
3	130680	96.9	0
3	130823	97	0
3	130973	97.1	0
3	131116	97.2	0
3	131266	97.3	0
3	131415	97.4	0
3	131538	97.5	0
3	131668	97.6	0
3	131798	97.7	0
3	131928	97.8	0
3	132058	97.9	0
3	132181	98	0
3	132311	98.1	0
3	132441	98.2	0
3	132564	98.3	0
3	132694	98.4	0
3	132824	98.5	0
3	132954	98.6	0
3	133084	98.7	0
3	133207	98.8	0
3	133337	98.9	0
3	133467	99	0
3	133597	99.1	0
[...]
5	290239	197.2	173.23949818435
5	290409	197.3	173.23949818435
5	290579	197.4	173.23949818435
5	290749	197.5	173.23949818435
5	290919	197.6	173.23949818435
5	291082	197.7	173.23949818435
5	291245	197.8	173.23949818435
5	291408	197.9	173.23949818435
5	291571	198	173.23949818435
5	291734	198.1	173.23949818435
5	291904	198.2	173.23949818435
5	292068	198.3	173.23949818435
5	292238	198.4	173.23949818435
5	292402	198.5	173.23949818435
5	292565	198.6	173.23949818435
5	292735	198.7	173.23949818435
5	292898	198.8	173.23949818435
5	293068	198.9	173.23949818435
5	293238	199	173.23949818435
5	293408	199.1	173.23949818435
5	293571	199.2	173.23949818435
5	293734	199.3	173.23949818435
5	293897	199.4	173.23949818435
5	294060	199.5	173.23949818435
5	294230	199.6	173.23949818435
5	294400	199.7	173.23949818435
5	294570	199.8	173.23949818435
5	294740	199.9	173.23949818435
5	294910	200	173.23949818435
5	295080	200.1	173.23949818435
5	295250	200.2	173.23949818435
5	295413	200.3	173.23171879195
5	295583	200.4	173.20979504975
5	295753	200.5	173.17372695774
5	295923	200.6	173.12351451593
5	296093	200.7	173.0669371167
5	296263	200.8	172.9057872895
5	296433	200.9	172.69995676623
5	296596	201	172.49412624296
5	296766	201.1	172.28829571968
5	296929	201.2	172.08246519641
5	297092	201.3	171.7943911219
5	297255	201.4	171.45134024977
5	297418	201.5	171.10828937765
5	297588	201.6	170.76523850553
5	297758	201.7	170.42218763341
5	297928	201.8	170.05274358939
5	298098	201.9	169.65670179479
5	298261	202	169.26066000019
5	298431	202.1	168.86461820559
5	298594	202.2	168.46857641099
5	298764	202.3	168.07253461639
5	298934	202.4	167.67525844
5	299104	202.5	167.27525844
5	299274	202.6	166.87525844
5	299444	202.7	166.47525844
5	299614	202.8	166.07525844
5	299784	202.9	165.67525844
5	299947	203	165.27525844
5	300117	203.1	164.87525844
5	300280	203.2	164.47525844
5	300450	203.3	164.07525844
5	300620	203.4	163.67525844
5	300790	203.5	163.27525844
5	300960	203.6	162.87525844
5	301130	203.7	162.47525844
5	301293	203.8	162.07525844
5	301456	203.9	161.67525844
5	301626	204	161.27525844
5	301796	204.1	160.87525844
5	301966	204.2	160.47525844
5	302136	204.3	160.07525844
5	302306	204.4	159.67525844
5	302476	204.5	159.27525844
5	302639	204.6	158.87525844
5	302809	204.7	158.47525844
5	302979	204.8	158.07525844
5	303149	204.9	157.67525844
5	303319	205	157.27525844
5	303489	205.1	156.87525844
5	303659	205.2	156.47525844
5	303829	205.3	156.07525844
5	303999	205.4	155.67525844
5	304169	205.5	155.27525844
5	304332	205.6	154.87525844
5	304502	205.7	154.47525844
5	304672	205.8	154.07525844
5	304835	205.9	153.67525844
5	304998	206	153.27525844
5	305162	206.1	152.87525844
5	305332	206.2	152.47525844
5	305502	206.3	152.07525844
5	305672	206.4	151.67525844
5	305842	206.5	151.27525844
5	306005	206.6	150.87525844
5	306169	206.7	150.47525844
5	306332	206.8	150.07525844
5	306495	206.9	149.67525844
5	306658	207	149.27525844
5	306821	207.1	148.87525844
5	306991	207.2	148.47525844
5	307161	207.3	148.07525844
5	307324	207.4	147.67525844
5	307487	207.5	147.27525844
5	307657	207.6	146.87525844
5	307827	207.7	146.47525844
5	307991	207.8	146.07525844
5	308161	207.9	145.67525844
5	308331	208	145.27525844
5	308501	208.1	144.87525844
5	308664	208.2	144.47525844
5	308834	208.3	144.07525844
5	308997	208.4	143.67525844
5	309160	208.5	143.27525844
5	309323	208.6	142.87525844
5	309487	208.7	142.47756557046
5	309657	208.8	142.08167185228
5	309827	208.9	141.6857781341
5	309997	209	141.28988441593
5	310167	209.1	140.89399069775
5	310337	209.2	140.49809697957
5	310507	209.3	140.1022032614
5	310670	209.4	139.70949198346
5	310833	209.5	139.36678035928
5	311003	209.6	139.02406873511
5	311173	209.7	138.68135711093
5	311337	209.8	138.33864548676
5	311507	209.9	137.99593386258
5	311677	210	137.65322223841
5	311841	210.1	137.42703616874
5	312004	210.2	137.22227316724
5	312174	210.3	137.01751016574
5	312338	210.4	136.81274716423
5	312502	210.5	136.60798416273
5	312672	210.6	136.40322116122
5	312842	210.7	136.29319574805
5	313012	210.8	136.23590485808
5	313182	210.9	136.17861396811
5	313352	211	136.12132307814
5	313522	211.1	136.06403218818
5	313692	211.2	136.00674129821
5	313862	211.3	135.94945040824
5	314032	211.4	135.9
5	314202	211.5	135.9
5	314365	211.6	135.9
5	314528	211.7	135.9
5	314698	211.8	135.9
5	314868	211.9	135.9
5	315032	212	135.9
5	315202	212.1	135.9
5	315372	212.2	135.9
5	315542	212.3	135.9
5	315712	212.4	135.9
5	315875	212.5	135.9
5	316038	212.6	135.9
5	316208	212.7	135.9
5	316378	212.8	135.9
5	316541	212.9	135.9
5	316704	213	135.9
5	316874	213.1	135.9
5	317044	213.2	135.9
5	317214	213.3	135.9
5	317384	213.4	135.9
5	317554	213.5	135.9
5	317724	213.6	135.9
5	317887	213.7	135.9
5	318051	213.8	135.9
5	318221	213.9	135.9
5	318391	214	135.9
5	318561	214.1	135.9
5	318731	214.2	135.9
5	318894	214.3	135.9
5	319064	214.4	135.9
5	319234	214.5	135.9
5	319404	214.6	135.87812109934
5	319574	214.7	135.82156512134
5	319744	214.8	135.76500914333
5	319914	214.9	135.70845316533
5	320077	215	135.65189718732
5	320247	215.1	135.59534120932
5	320417	215.2	135.50920028602
5	320587	215.3	135.30344769389
5	320757	215.4	135.09769510177
5	320921	215.5	134.89194250965
5	321091	215.6	134.68618991753
5	321261	215.7	134.46739554235
5	321431	215.8	134.12433429031
5	321594	215.9	133.78113926984
5	321757	216	133.43794424936
5	321927	216.1	133.09474922889
5	322090	216.2	132.75155420842
5	322260	216.3	132.35558607684
5	322430	216.4	131.95937786735
5	322600	216.5	131.56316965787
5	322763	216.6	131.16696144838
5	322933	216.7	130.77075323889
5	323103	216.8	130.3745450294
5	323273	216.9	129.97525844
5	323443	217	129.57525844
5	323613	217.1	129.17525844
5	323776	217.2	128.77525844
5	323946	217.3	128.37525844
5	324116	217.4	127.97525844
5	324279	217.5	127.57525844
5	324449	217.6	127.17525844
5	324619	217.7	126.77525844
5	324789	217.8	126.37525844
5	324959	217.9	125.97525844
5	325122	218	125.57525844
5	325292	218.1	125.17525844
5	325455	218.2	124.77525844
5	325618	218.3	124.37525844
5	325782	218.4	123.97525844
5	325952	218.5	123.57525844
5	326122	218.6	123.17525844
5	326285	218.7	122.77525844
5	326455	218.8	122.37525844
5	326625	218.9	121.97525844
5	326795	219	121.57525844
5	326965	219.1	121.17525844
5	327128	219.2	120.77525844
5	327298	219.3	120.37525844
5	327468	219.4	119.97525844
5	327631	219.5	119.57525844
5	327801	219.6	119.17525844
5	327971	219.7	118.77525844
5	328141	219.8	118.37525844
5	328311	219.9	117.97525844
5	328481	220	117.57525844
5	328651	220.1	117.17525844
5	328814	220.2	116.77525844
5	328984	220.3	116.37525844
5	329147	220.4	115.97525844
5	329310	220.5	115.57525844
5	329473	220.6	115.17525844
5	329643	220.7	114.77525844
5	329813	220.8	114.37525844
5	329983	220.9	113.97525844
5	330147	221	113.57525844
5	330317	221.1	113.17525844
5	330480	221.2	112.77525844
5	330643	221.3	112.37525844
5	330806	221.4	111.97525844
5	330976	221.5	111.57525844
5	331146	221.6	111.17525844
5	331309	221.7	110.77525844
5	331479	221.8	110.37525844
5	331642	221.9	109.97525844
5	331812	222	109.57525844
5	331975	222.1	109.17525844
5	332138	222.2	108.77525844
5	332308	222.3	108.37525844
5	332471	222.4	107.97525844
5	332641	222.5	107.57525844
5	332811	222.6	107.17525844
5	332981	222.7	106.83025844
5	333151	222.8	106.58525844
5	333321	222.9	106.44025844
5	333491	223	106.39525844
5	333654	223.1	106.39525844
5	333824	223.2	106.39525844
5	333994	223.3	106.39525844
5	334157	223.4	106.39525844
5	334320	223.5	106.39525844
5	334483	223.6	106.39525844
5	334653	223.7	106.39525844
5	334823	223.8	106.39525844
5	334986	223.9	106.39525844
5	335150	224	106.39525844
5	335320	224.1	106.39525844
5	335483	224.2	106.34025844
5	335646	224.3	106.18525844
5	335796	224.4	105.93025844
5	335940	224.5	105.57525844
5	336090	224.6	105.17525844
5	336234	224.7	104.77525844
5	336384	224.8	104.37525844
5	336527	224.9	103.97525844
5	336677	225	103.57525844
5	336827	225.1	103.17525844
5	336977	225.2	102.77525844
5	337127	225.3	102.37525844
5	337277	225.4	101.97525844
5	337427	225.5	101.57525844
5	337577	225.6	101.17525844
5	337727	225.7	100.77525844
5	337877	225.8	100.37525844
5	338027	225.9	99.97525844
5	338177	226	99.57525844
5	338320	226.1	99.17525844
5	338470	226.2	98.77525844
5	338620	226.3	98.37525844
5	338770	226.4	97.97525844
5	338920	226.5	97.57525844
5	339070	226.6	97.17525844
5	339213	226.7	96.77525844
5	339363	226.8	96.37525844
5	339506	226.9	95.97525844
5	339649	227	95.57525844
5	339792	227.1	95.17525844
5	339942	227.2	94.77525844
5	340085	227.3	94.37525844
5	340235	227.4	93.97525844
5	340379	227.5	93.57525844
5	340522	227.6	93.17525844
5	340672	227.7	92.77525844
5	340815	227.8	92.37525844
5	340958	227.9	91.97525844
5	341108	228	91.57525844
5	341258	228.1	91.17525844
5	341401	228.2	90.77525844
5	341551	228.3	90.37525844
5	341701	228.4	89.97525844
5	341845	228.5	89.57525844
5	341995	228.6	89.17525844
5	342145	228.7	88.77525844
5	342295	228.8	88.37525844
5	342445	228.9	87.97525844
5	342595	229	87.57525844
5	342738	229.1	87.17525844
5	342888	229.2	86.77525844
5	343038	229.3	86.37525844
5	343188	229.4	85.97525844
5	343338	229.5	85.57525844
5	343488	229.6	85.17525844
5	343638	229.7	84.77525844
5	343788	229.8	84.37525844
5	343938	229.9	83.97525844
5	344088	230	83.57525844
5	344231	230.1	83.17525844
5	344374	230.2	82.77525844
5	344524	230.3	82.37525844
5	344667	230.4	81.97525844
5	344817	230.5	81.57525844
5	344967	230.6	81.17525844
5	345110	230.7	80.77525844
5	345253	230.8	80.37525844
5	345397	230.9	79.97525844
5	345547	231	79.57525844
5	345690	231.1	79.17525844
5	345833	231.2	78.77525844
5	345983	231.3	78.37525844
5	346133	231.4	77.97525844
5	346283	231.5	77.57525844
5	346427	231.6	77.17525844
5	346570	231.7	76.77525844
5	346633	231.8	76.37525844
5	346696	231.9	75.97525844
5	346759	232	75.57525844
5	346822	232.1	75.17525844
5	346885	232.2	74.77525844
5	346948	232.3	74.37525844
5	347011	232.4	73.97525844
5	347074	232.5	73.57525844
5	347137	232.6	73.17525844
5	347200	232.7	72.77525844
5	347263	232.8	72.37525844
5	347326	232.9	71.97525844
5	347389	233	71.57525844
5	347452	233.1	71.17525844
5	347515	233.2	70.77525844
5	347578	233.3	70.37525844
5	347641	233.4	69.97525844
5	347704	233.5	69.576492821791
5	347767	233.6	69.234906773948
5	347830	233.7	68.992331174756
5	347893	233.8	68.848766024213
5	347956	233.9	68.80421132232
5	348019	234	68.80421132232
5	348082	234.1	68.80421132232
5	348145	234.2	68.80421132232
5	348208	234.3	68.80421132232
5	348271	234.4	68.80421132232
5	348334	234.5	68.80421132232
5	348397	234.6	68.80421132232
5	348460	234.7	68.80421132232
5	348523	234.8	68.80421132232
5	348586	234.9	68.80421132232
5	348649	235	68.80421132232
5	348712	235.1	68.80421132232
5	348775	235.2	68.80421132232
5	348838	235.3	68.80421132232
5	348901	235.4	68.80421132232
5	348964	235.5	68.80421132232
5	349027	235.6	68.80421132232
5	349090	235.7	68.80421132232
5	349153	235.8	68.80421132232
5	349216	235.9	68.80421132232
5	349279	236	68.80421132232
5	349342	236.1	68.80421132232
5	349405	236.2	68.80421132232
5	349468	236.3	68.80421132232
5	349531	236.4	68.80421132232
5	349594	236.5	68.80421132232
5	349657	236.6	68.80421132232
5	349720	236.7	68.80421132232
5	349783	236.8	68.80421132232
5	349846	236.9	68.80421132232
5	349909	237	68.80421132232
5	349972	237.1	68.80421132232
5	350035	237.2	68.80421132232
5	350098	237.3	68.80421132232
5	350161	237.4	68.80421132232
5	350224	237.5	68.80421132232
5	350287	237.6	68.80421132232
5	350350	237.7	68.80421132232
5	350413	237.8	68.80421132232
5	350476	237.9	68.80421132232
5	350539	238	68.80421132232
5	350602	238.1	68.80421132232
5	350665	238.2	68.80421132232
5	350728	238.3	68.80421132232
5	350791	238.4	68.80421132232
5	350854	238.5	68.80421132232
5	350917	238.6	68.80421132232
5	350980	238.7	68.80421132232
5	351043	238.8	68.80421132232
5	351106	238.9	68.80421132232
5	351169	239	68.80421132232
5	351232	239.1	68.80421132232
5	351295	239.2	68.80421132232
5	351358	239.3	68.80421132232
5	351421	239.4	68.80421132232
5	351484	239.5	68.80421132232
5	351547	239.6	68.80421132232
5	351610	239.7	68.80421132232
5	351673	239.8	68.80421132232
5	351736	239.9	68.80421132232
5	351799	240	68.80421132232
5	351862	240.1	68.80421132232
5	351925	240.2	68.80421132232
5	351988	240.3	68.80421132232
5	352051	240.4	68.80421132232
5	352114	240.5	68.80421132232
5	352177	240.6	68.80421132232
5	352240	240.7	68.80421132232
5	352303	240.8	68.80421132232
5	352366	240.9	68.80421132232
5	352429	241	68.80421132232
5	352492	241.1	68.80421132232
5	352555	241.2	68.80421132232
5	352618	241.3	68.80421132232
5	352681	241.4	68.80421132232
5	352744	241.5	68.80421132232
5	352807	241.6	68.80421132232
5	352870	241.7	68.80421132232
5	352933	241.8	68.80421132232
5	352996	241.9	68.80421132232
5	353059	242	68.80421132232
5	353122	242.1	68.80421132232
5	353185	242.2	68.80421132232
5	353248	242.3	68.80421132232
5	353311	242.4	68.80421132232
5	353374	242.5	68.80421132232
5	353437	242.6	68.80421132232
5	353500	242.7	68.80421132232
5	353563	242.8	68.80421132232
5	353626	242.9	68.80421132232
5	353689	243	68.80421132232
5	353752	243.1	68.80421132232
5	353815	243.2	68.80421132232
5	353878	243.3	68.80421132232
5	353941	243.4	68.80421132232
5	354004	243.5	68.80421132232
5	354067	243.6	68.80421132232
5	354130	243.7	68.80421132232
5	354193	243.8	68.80421132232
5	354256	243.9	68.80421132232
5	354319	244	68.80421132232
5	354382	244.1	68.80421132232
5	354445	244.2	68.80421132232
5	354508	244.3	68.80421132232
5	354571	244.4	68.80421132232
5	354634	244.5	68.80421132232
5	354697	244.6	68.80421132232
5	354760	244.7	68.80421132232
5	354823	244.8	68.80421132232
5	354886	244.9	68.80421132232
5	354949	245	68.80421132232
5	355012	245.1	68.80421132232
5	355075	245.2	68.80421132232
5	355138	245.3	68.80421132232
5	355201	245.4	68.80421132232
5	355264	245.5	68.80421132232
5	355327	245.6	68.80421132232
5	355390	245.7	68.80421132232
5	355453	245.8	68.80421132232
5	355516	245.9	68.80421132232
5	355579	246	68.80421132232
5	355642	246.1	68.80421132232
5	355705	246.2	68.80421132232
5	355768	246.3	68.80421132232
5	355831	246.4	68.80421132232
5	355894	246.5	68.80421132232
5	355957	246.6	68.80421132232
5	356020	246.7	68.80421132232
5	356083	246.8	68.80421132232
5	356146	246.9	68.80421132232
5	356209	247	68.80421132232
5	356272	247.1	68.80421132232
5	356335	247.2	68.80421132232
5	356398	247.3	68.80421132232
5	356461	247.4	68.80421132232
5	356524	247.5	68.80421132232
5	356587	247.6	68.80421132232
5	356650	247.7	68.80421132232
5	356713	247.8	68.80421132232
5	356776	247.9	68.80421132232
5	356839	248	68.80421132232
5	356902	248.1	68.80421132232
5	356965	248.2	68.80421132232
5	357028	248.3	68.80421132232
5	357091	248.4	68.80421132232
5	357154	248.5	68.80421132232
5	357217	248.6	68.80421132232
5	357280	248.7	68.80421132232
5	357343	248.8	68.80421132232
5	357406	248.9	68.80421132232
5	357469	249	68.80421132232
5	357532	249.1	68.80421132232
5	357595	249.2	68.80421132232
5	357658	249.3	68.80421132232
5	357721	249.4	68.80421132232
5	357784	249.5	68.80421132232
5	357847	249.6	68.80421132232
5	357910	249.7	68.80421132232
5	357973	249.8	68.80421132232
5	358036	249.9	68.80421132232
5	358099	250	68.80421132232
5	358162	250.1	68.80421132232
5	358225	250.2	68.80421132232
5	358288	250.3	68.80421132232
5	358351	250.4	68.80421132232
5	358414	250.5	68.80421132232
5	358477	250.6	68.80421132232
5	358540	250.7	68.80421132232
5	358603	250.8	68.80421132232
5	358666	250.9	68.80421132232
5	358729	251	68.80421132232
5	358792	251.1	68.80421132232
5	358855	251.2	68.749755575563
5	358918	251.3	68.596289380155
5	358981	251.4	68.343812736097
5	359044	251.5	67.992325643389
5	359107	251.6	67.596283848789
5	359170	251.7	67.200242054189
5	359233	251.8	66.804200259588
5	359296	251.9	66.408158464988
5	359359	252	66.012116670387
5	359422	252.1	65.647374370669
5	359485	252.2	65.304323498547
5	359548	252.3	64.961272626426
5	359611	252.4	64.618221754305
5	359674	252.5	64.275170882184
5	359737	252.6	63.932120010063
5	359800	252.7	63.589069137942
5	359863	252.8	63.24601826582
5	359926	252.9	62.981780436219
5	359989	253	62.775949912947
5	360052	253.1	62.570119389674
5	360115	253.2	62.364288866401
5	360178	253.3	62.158458343129
5	360241	253.4	61.952627819856
5	360304	253.5	61.746797296583
5	360367	253.6	61.540966773311
5	360430	253.7	61.41842697509
5	360493	253.8	61.361849575861
5	360556	253.9	61.305272176633
5	360619	254	61.248694777404
5	360682	254.1	61.192117378176
5	360745	254.2	61.135539978947
5	360808	254.3	61.078962579718
5	360871	254.4	61.02238518049
5	360934	254.5	60.965807781261
5	360997	254.6	60.909230382032
5	361060	254.7	60.9
5	361123	254.8	60.9
5	361186	254.9	60.9
5	361249	255	60.9
5	361312	255.1	60.9
5	361375	255.2	60.9
5	361438	255.3	60.9
5	361501	255.4	60.9
5	361564	255.5	60.9
5	361627	255.6	60.9
5	361690	255.7	60.9
5	361753	255.8	60.9
5	361816	255.9	60.9
5	361879	256	60.9
5	361942	256.1	60.9
5	362005	256.2	60.9
5	362068	256.3	60.9
5	362131	256.4	60.9
5	362194	256.5	60.9
5	362257	256.6	60.9
5	362320	256.7	60.9
5	362383	256.8	60.9
5	362446	256.9	60.9
5	362509	257	60.9
5	362572	257.1	60.9
5	362635	257.2	60.9
5	362698	257.3	60.895087892742
5	362761	257.4	60.838531914738
5	362824	257.5	60.781975936734
5	362887	257.6	60.72541995873
5	362950	257.7	60.668863980726
5	363013	257.8	60.612308002722
5	363076	257.9	60.555752024718
5	363139	258	60.365173471531
5	363202	258.1	60.15942087941
5	363265	258.2	59.953668287288
5	363328	258.3	59.747915695167
5	363391	258.4	59.542163103046
5	363454	258.5	59.227292796453
5	363517	258.6	58.884097775979
5	363580	258.7	58.540902755505
5	363643	258.8	58.197707735032
5	363706	258.9	57.854512714558
5	363769	259	57.474448539688
5	363832	259.1	57.078240330201
5	363895	259.2	56.682032120713
5	363958	259.3	56.285823911225
5	364021	259.4	55.889615701738
5	364084	259.5	55.49340749225
5	364147	259.6	55.095258440001
5	364210	259.7	54.695258440001
5	364272	259.8	54.295258440001
5	364321	259.9	53.895258440001
5	364370	260	53.495258440001
5	364419	260.1	53.095258440001
5	364468	260.2	52.695258440001
5	364517	260.3	52.295258440001
5	364566	260.4	51.895258440001
5	364615	260.5	51.495258440001
5	364664	260.6	51.095258440001
5	364713	260.7	50.695258440001
5	364762	260.8	50.295258440001
5	364811	260.9	49.895258440001
5	364860	261	49.495258440001
5	364909	261.1	49.095258440001
5	364958	261.2	48.695258440001
5	365007	261.3	48.295258440001
5	365056	261.4	47.895258440001
5	365105	261.5	47.495258440001
5	365154	261.6	47.095258440001
5	365203	261.7	46.695258440001
5	365252	261.8	46.295258440001
5	365301	261.9	45.895258440001
5	365350	262	45.495258440001
5	365399	262.1	45.095258440001
5	365448	262.2	44.695258440001
5	365497	262.3	44.295258440001
5	365546	262.4	43.895258440001
5	365595	262.5	43.495258440001
5	365644	262.6	43.095258440001
5	365693	262.7	42.695258440001
5	365742	262.8	42.295258440001
5	365791	262.9	41.895258440001
5	365840	263	41.495258440001
5	365889	263.1	41.095258440001
5	365938	263.2	40.695258440001
5	365987	263.3	40.295258440001
5	366036	263.4	39.895258440001
5	366085	263.5	39.495258440001
5	366134	263.6	39.095258440001
5	366183	263.7	38.695258440001
5	366232	263.8	38.295258440001
5	366281	263.9	37.895258440001
5	366330	264	37.495258440001
5	366379	264.1	37.095258440001
5	366428	264.2	36.695258440001
5	366477	264.3	36.295258440001
5	366526	264.4	35.895258440001
5	366575	264.5	35.495258440001
5	366624	264.6	35.095258440001
5	366673	264.7	34.695258440001
5	366722	264.8	34.295258440001
5	366771	264.9	33.895258440001
5	366820	265	33.495258440001
5	366869	265.1	33.095258440001
5	366918	265.2	32.695258440001
5	366967	265.3	32.295258440001
5	367016	265.4	31.895258440001
5	367065	265.5	31.495258440001
5	367114	265.6	31.095258440001
5	367163	265.7	30.695258440001
5	367212	265.8	30.295258440001
5	367261	265.9	29.895258440001
5	367310	266	29.495258440001
5	367359	266.1	29.095258440001
5	367408	266.2	28.695258440001
5	367457	266.3	28.295258440001
5	367506	266.4	27.895258440001
5	367555	266.5	27.495258440001
5	367604	266.6	27.095258440001
5	367653	266.7	26.695258440001
5	367702	266.8	26.295258440001
5	367751	266.9	25.895258440001
5	367800	267	25.495258440001

