version 3
run General-0-20230630-22:59:42-18952
attr configname General
attr datetime 20230630-22:59:42
attr datetimef 20230630-225942
attr experiment General
attr inifile omnetpp.ini
attr iterationvars ""
attr iterationvarsd ""
attr iterationvarsf ""
attr measurement ""
attr network myHospitalNetwork
attr processid 18952
attr repetition 0
attr replication #0
attr resultdir results
attr runnumber 0
attr seedset 0
config image-path ../../../../../Documents/inet/images:../../../../../Documents/veins/images
config cmdenv-express-mode true
config cmdenv-autoflush true
config cmdenv-status-frequency 0.1s
config **.cmdenv-log-level info
config ned-path .
config image-path ../../images
config network myHospitalNetwork
config debug-on-errors true
config print-undisposed false
config sim-time-limit 3600s
config **.scalar-recording true
config **.vector-recording true
config *.playgroundSizeX 2500m
config *.playgroundSizeY 2500m
config *.playgroundSizeZ 50m
config *.annotations.draw true
config *.manager.updateInterval 0.1s
config *.manager.host "\"localhost\""
config *.manager.port 9999
config *.manager.autoShutdown true
config *.manager.launchConfig "xmldoc(\"vd013.launchd.xml\")"
config *.manager.moduleType "\"agv=org.car2x.veins.nodes.Car pedestrian=lab001.veins_inet.IPerson\""
config *.manager.moduleName "\"agv=node pedestrian=personNode\""
config *.manager.moduleDisplayString "\"agv='i=veins/node/car;is=vs' pedestrian='i=veins/node/pedestrian;is=vs'\""
config *.rsu[0].mobility.x 300
config *.rsu[0].mobility.y 300
config *.rsu[0].mobility.z 3
config *.rsu[*].applType "\"HospitalControlApp\""
config *.rsu[*].appl.headerLength "80 bit"
config *.rsu[*].appl.sendBeacons false
config *.rsu[*].appl.dataOnSch false
config *.rsu[*].nic.phy80211p.antennaOffsetZ "0 m"
config *.connectionManager.sendDirect true
config *.connectionManager.maxInterfDist 2600m
config *.connectionManager.drawMaxIntfDist false
config *.**.nic.mac1609_4.useServiceChannel true
config *.**.nic.mac1609_4.txPower 20mW
config *.**.nic.mac1609_4.bitrate 6Mbps
config *.**.nic.phy80211p.minPowerLevel -110dBm
config *.**.nic.phy80211p.useNoiseFloor true
config *.**.nic.phy80211p.noiseFloor -98dBm
config *.**.nic.phy80211p.decider "xmldoc(\"config.xml\")"
config *.**.nic.phy80211p.analogueModels "xmldoc(\"config.xml\")"
config *.**.nic.phy80211p.usePropagationDelay true
config *.**.nic.phy80211p.antenna "xmldoc(\"antenna.xml\", \"/root/Antenna[@id='monopole']\")"
config *.node[*].nic.phy80211p.antennaOffsetY "0 m"
config *.node[*].nic.phy80211p.antennaOffsetZ "1.895 m"
config *.node[*].applType "\"AGVControlApp\""
config *.node[*].appl.headerLength "80 bit"
config *.node[*].appl.sendBeacons false
config *.node[*].appl.dataOnSch true
config *.node[*].appl.beaconInterval 0.1s
config *.node[*].veinsmobility.x 0
config *.node[*].veinsmobility.y 0
config *.node[*].veinsmobility.z 0
config *.node[*].veinsmobility.setHostSpeed false
config *.node[*0].veinsmobility.accidentCount 0

par myHospitalNetwork.obstacles typename "\"org.car2x.veins.modules.obstacle.ObstacleControl\""
par myHospitalNetwork.obstacles obstacles "<obstacles/> at content:1"
par myHospitalNetwork.obstacles gridCellSize 250
par myHospitalNetwork.annotations typename "\"org.car2x.veins.modules.world.annotations.AnnotationManager\""
par myHospitalNetwork.annotations draw true
par myHospitalNetwork.annotations annotations "<annotations/> at content:1"
par myHospitalNetwork.connectionManager typename "\"org.car2x.veins.base.connectionManager.ConnectionManager\""
par myHospitalNetwork.connectionManager sendDirect true
par myHospitalNetwork.connectionManager maxInterfDist 2600m
attr unit m
par myHospitalNetwork.connectionManager drawMaxIntfDist false
par myHospitalNetwork.world typename "\"org.car2x.veins.base.modules.BaseWorldUtility\""
par myHospitalNetwork.world playgroundSizeX 2500m
attr unit m
par myHospitalNetwork.world playgroundSizeY 2500m
attr unit m
par myHospitalNetwork.world playgroundSizeZ 50m
attr unit m
par myHospitalNetwork.world useTorus false
par myHospitalNetwork.world use2D false
par myHospitalNetwork.manager typename "\"org.car2x.veins.modules.mobility.traci.TraCIScenarioManagerLaunchd\""
par myHospitalNetwork.manager connectAt 0s
attr unit s
par myHospitalNetwork.manager firstStepAt -1s
attr unit s
par myHospitalNetwork.manager updateInterval 0.1s
attr unit s
par myHospitalNetwork.manager moduleType "\"agv=org.car2x.veins.nodes.Car pedestrian=lab001.veins_inet.IPerson\""
par myHospitalNetwork.manager moduleName "\"agv=node pedestrian=personNode\""
par myHospitalNetwork.manager moduleDisplayString "\"agv='i=veins/node/car;is=vs' pedestrian='i=veins/node/pedestrian;is=vs'\""
par myHospitalNetwork.manager trafficLightModuleType "\"\""
par myHospitalNetwork.manager trafficLightModuleName "\"tls\""
par myHospitalNetwork.manager trafficLightFilter "\"\""
par myHospitalNetwork.manager trafficLightModuleDisplayString "\"i=misc/node2;is=vs;r=0,,#707070,1\""
par myHospitalNetwork.manager host "\"localhost\""
par myHospitalNetwork.manager port 9999
par myHospitalNetwork.manager seed -1
par myHospitalNetwork.manager autoShutdown true
par myHospitalNetwork.manager margin 25
par myHospitalNetwork.manager roiRoads "\"\""
par myHospitalNetwork.manager roiRects "\"\""
par myHospitalNetwork.manager penetrationRate 1
par myHospitalNetwork.manager ignoreGuiCommands false
par myHospitalNetwork.manager order -1
par myHospitalNetwork.manager ignoreUnknownSubscriptionResults false
par myHospitalNetwork.manager launchConfig "<launch>...</launch> at /home/dung/omnetpp-6.0.1/workspace/lab001/simulations/eh//vd013.launchd.xml:34"
scalar myHospitalNetwork.manager roiArea 0
par myHospitalNetwork.roadsCanvasVisualizer typename "\"org.car2x.veins.visualizer.roads.RoadsCanvasVisualizer\""
par myHospitalNetwork.roadsCanvasVisualizer enabled true
par myHospitalNetwork.roadsCanvasVisualizer lineZIndex -1
par myHospitalNetwork.roadsCanvasVisualizer lineColor "\"firebrick4\""
par myHospitalNetwork.roadsCanvasVisualizer lineWidth 1
par myHospitalNetwork.roadsCanvasVisualizer lineWidthZoom false
par myHospitalNetwork.node[0].appl typename "\"lab001.veins_inet.AGVControlApp\""
par myHospitalNetwork.node[0].appl headerLength 80bit
attr unit bit
par myHospitalNetwork.node[0].appl sendBeacons false
par myHospitalNetwork.node[0].appl beaconLengthBits 256bit
attr unit bit
par myHospitalNetwork.node[0].appl beaconUserPriority 7
par myHospitalNetwork.node[0].appl beaconInterval 0.1s
attr unit s
par myHospitalNetwork.node[0].appl dataLengthBits 1024bit
attr unit bit
par myHospitalNetwork.node[0].appl dataOnSch true
par myHospitalNetwork.node[0].appl dataUserPriority 7
par myHospitalNetwork.node[0].appl avoidBeaconSynchronization true
par myHospitalNetwork.node[0].appl sendWSA false
par myHospitalNetwork.node[0].appl wsaLengthBits 250bit
attr unit bit
par myHospitalNetwork.node[0].appl wsaInterval 1s
attr unit s
par myHospitalNetwork.node[0].appl appName "\"My first Veins App!\""
scalar myHospitalNetwork.node[0].appl generatedWSMs 0
scalar myHospitalNetwork.node[0].appl receivedWSMs 0
scalar myHospitalNetwork.node[0].appl generatedBSMs 116
scalar myHospitalNetwork.node[0].appl receivedBSMs 0
scalar myHospitalNetwork.node[0].appl generatedWSAs 0
scalar myHospitalNetwork.node[0].appl receivedWSAs 0
par myHospitalNetwork.node[0].nic.phy80211p typename "\"org.car2x.veins.modules.phy.PhyLayer80211p\""
par myHospitalNetwork.node[0].nic.phy80211p recordStats false
par myHospitalNetwork.node[0].nic.phy80211p usePropagationDelay true
par myHospitalNetwork.node[0].nic.phy80211p noiseFloor -98dBm
attr unit dBm
par myHospitalNetwork.node[0].nic.phy80211p useNoiseFloor true
par myHospitalNetwork.node[0].nic.phy80211p antenna "<Antenna type=\"SampledAntenna1D\" id=\"monopole\">...</Antenna> at /home/dung/omnetpp-6.0.1/workspace/lab001/simulations/eh//antenna.xml:35"
par myHospitalNetwork.node[0].nic.phy80211p antennaOffsetX 0m
attr unit m
par myHospitalNetwork.node[0].nic.phy80211p antennaOffsetY 0m
attr unit m
par myHospitalNetwork.node[0].nic.phy80211p antennaOffsetZ 1.895m
attr unit m
par myHospitalNetwork.node[0].nic.phy80211p antennaOffsetYaw 0rad
attr unit rad
par myHospitalNetwork.node[0].nic.phy80211p analogueModels "<root>...</root> at /home/dung/omnetpp-6.0.1/workspace/lab001/simulations/eh//config.xml:34"
par myHospitalNetwork.node[0].nic.phy80211p decider "<root>...</root> at /home/dung/omnetpp-6.0.1/workspace/lab001/simulations/eh//config.xml:34"
par myHospitalNetwork.node[0].nic.phy80211p minPowerLevel -110dBm
attr unit dBm
par myHospitalNetwork.node[0].nic.phy80211p timeRXToTX 0s
attr unit s
par myHospitalNetwork.node[0].nic.phy80211p timeRXToSleep 0s
attr unit s
par myHospitalNetwork.node[0].nic.phy80211p timeTXToRX 0s
attr unit s
par myHospitalNetwork.node[0].nic.phy80211p timeTXToSleep 0s
attr unit s
par myHospitalNetwork.node[0].nic.phy80211p timeSleepToRX 0s
attr unit s
par myHospitalNetwork.node[0].nic.phy80211p timeSleepToTX 0s
attr unit s
par myHospitalNetwork.node[0].nic.phy80211p initialRadioState 0
par myHospitalNetwork.node[0].nic.phy80211p radioMinAtt 1
par myHospitalNetwork.node[0].nic.phy80211p radioMaxAtt 0
par myHospitalNetwork.node[0].nic.phy80211p nbRadioChannels 1
par myHospitalNetwork.node[0].nic.phy80211p initialRadioChannel 0
par myHospitalNetwork.node[0].nic.phy80211p ccaThreshold -65dBm
attr unit dBm
par myHospitalNetwork.node[0].nic.phy80211p collectCollisionStatistics false
par myHospitalNetwork.node[0].nic.phy80211p allowTxDuringRx false
scalar myHospitalNetwork.node[0].nic.phy80211p busyTime 0.028342158020242
par myHospitalNetwork.node[0].nic.mac1609_4 typename "\"org.car2x.veins.modules.mac.ieee80211p.Mac1609_4\""
par myHospitalNetwork.node[0].nic.mac1609_4 notAffectedByHostState false
par myHospitalNetwork.node[0].nic.mac1609_4 headerLength 0bit
attr unit bit
par myHospitalNetwork.node[0].nic.mac1609_4 address "\"auto\""
par myHospitalNetwork.node[0].nic.mac1609_4 useServiceChannel true
par myHospitalNetwork.node[0].nic.mac1609_4 serviceChannel 1
par myHospitalNetwork.node[0].nic.mac1609_4 bitrate 6000000bps
attr unit bps
par myHospitalNetwork.node[0].nic.mac1609_4 syncOffset 0.0003s
attr unit s
par myHospitalNetwork.node[0].nic.mac1609_4 txPower 20mW
attr unit mW
par myHospitalNetwork.node[0].nic.mac1609_4 queueSize 0
par myHospitalNetwork.node[0].nic.mac1609_4 dot11RTSThreshold 12000bit
attr unit bit
par myHospitalNetwork.node[0].nic.mac1609_4 dot11ShortRetryLimit 7
par myHospitalNetwork.node[0].nic.mac1609_4 dot11LongRetryLimit 4
par myHospitalNetwork.node[0].nic.mac1609_4 ackLength 112bit
attr unit bit
par myHospitalNetwork.node[0].nic.mac1609_4 useAcks false
par myHospitalNetwork.node[0].nic.mac1609_4 frameErrorRate 0
par myHospitalNetwork.node[0].nic.mac1609_4 ackErrorRate 0
scalar myHospitalNetwork.node[0].nic.mac1609_4 ReceivedUnicastPackets 0
scalar myHospitalNetwork.node[0].nic.mac1609_4 ReceivedBroadcasts 925
scalar myHospitalNetwork.node[0].nic.mac1609_4 SentPackets 230
scalar myHospitalNetwork.node[0].nic.mac1609_4 SentAcknowledgements 0
scalar myHospitalNetwork.node[0].nic.mac1609_4 RetriesExceeded 0
scalar myHospitalNetwork.node[0].nic.mac1609_4 SNIRLostPackets 822
scalar myHospitalNetwork.node[0].nic.mac1609_4 RXTXLostPackets 238
scalar myHospitalNetwork.node[0].nic.mac1609_4 TotalLostPackets 1060
scalar myHospitalNetwork.node[0].nic.mac1609_4 DroppedPacketsInMac 0
scalar myHospitalNetwork.node[0].nic.mac1609_4 TooLittleTime 1
scalar myHospitalNetwork.node[0].nic.mac1609_4 TimesIntoBackoff 374
scalar myHospitalNetwork.node[0].nic.mac1609_4 SlotsBackoff 375
scalar myHospitalNetwork.node[0].nic.mac1609_4 NumInternalContention 0
scalar myHospitalNetwork.node[0].nic.mac1609_4 totalBusyTime 0.261313926445
scalar myHospitalNetwork.node[0].nic.mac1609_4 retriesExceeded:count 0
attr recordingmode count
attr source org_car2x_veins_modules_mac_sigRetriesExceeded
scalar myHospitalNetwork.node[0].nic.mac1609_4 sentAcks:count 0
attr recordingmode count
attr source org_car2x_veins_modules_mac_sigSentAck
scalar myHospitalNetwork.node[0].nic.mac1609_4 sentPackets:count 230
attr recordingmode count
attr source org_car2x_veins_modules_mac_sigSentPacket
scalar myHospitalNetwork.node[0].nic.mac1609_4 collisions:count 0
attr recordingmode count
attr source org_car2x_veins_modules_mac_sigCollision
scalar myHospitalNetwork.node[0].nic.mac1609_4 channelBusy:timeavg 0.022518914026033
attr recordingmode timeavg
attr source org_car2x_veins_modules_mac_sigChannelBusy
par myHospitalNetwork.node[0].nic typename "\"org.car2x.veins.modules.nic.Nic80211p\""
par myHospitalNetwork.node[0].nic connectionManagerName "\"connectionManager\""
par myHospitalNetwork.node[0].veinsmobility typename "\"org.car2x.veins.modules.mobility.traci.TraCIMobility\""
par myHospitalNetwork.node[0].veinsmobility notAffectedByHostState true
par myHospitalNetwork.node[0].veinsmobility x 0
par myHospitalNetwork.node[0].veinsmobility y 0
par myHospitalNetwork.node[0].veinsmobility z 0
par myHospitalNetwork.node[0].veinsmobility xOrientation 1
par myHospitalNetwork.node[0].veinsmobility yOrientation 0
par myHospitalNetwork.node[0].veinsmobility zOrientation 0
par myHospitalNetwork.node[0].veinsmobility hostPositionOffset 0m
attr unit m
par myHospitalNetwork.node[0].veinsmobility setHostSpeed false
par myHospitalNetwork.node[0].veinsmobility accidentCount 0
par myHospitalNetwork.node[0].veinsmobility accidentStart 46.3465s
attr unit s
par myHospitalNetwork.node[0].veinsmobility accidentDuration "uniform(30s, 60s)"
attr unit s
par myHospitalNetwork.node[0].veinsmobility accidentInterval "uniform(30s, 60s)"
attr unit s
scalar myHospitalNetwork.node[0].veinsmobility startTime 0.1
scalar myHospitalNetwork.node[0].veinsmobility totalTime 11.6
scalar myHospitalNetwork.node[0].veinsmobility stopTime 11.704197526706
scalar myHospitalNetwork.node[0].veinsmobility minSpeed 1.9
scalar myHospitalNetwork.node[0].veinsmobility maxSpeed 3.8512
scalar myHospitalNetwork.node[0].veinsmobility totalDistance 44.234517592026
scalar myHospitalNetwork.node[0].veinsmobility totalCO2Emission 16.539028606396
par myHospitalNetwork.node[0] typename "\"org.car2x.veins.nodes.Car\""
par myHospitalNetwork.node[0] applType "\"AGVControlApp\""
par myHospitalNetwork.node[0] nicType "\"Nic80211p\""
par myHospitalNetwork.node[0] veinsmobilityType "\"org.car2x.veins.modules.mobility.traci.TraCIMobility\""
par myHospitalNetwork.node[1].appl typename "\"lab001.veins_inet.AGVControlApp\""
par myHospitalNetwork.node[1].appl headerLength 80bit
attr unit bit
par myHospitalNetwork.node[1].appl sendBeacons false
par myHospitalNetwork.node[1].appl beaconLengthBits 256bit
attr unit bit
par myHospitalNetwork.node[1].appl beaconUserPriority 7
par myHospitalNetwork.node[1].appl beaconInterval 0.1s
attr unit s
par myHospitalNetwork.node[1].appl dataLengthBits 1024bit
attr unit bit
par myHospitalNetwork.node[1].appl dataOnSch true
par myHospitalNetwork.node[1].appl dataUserPriority 7
par myHospitalNetwork.node[1].appl avoidBeaconSynchronization true
par myHospitalNetwork.node[1].appl sendWSA false
par myHospitalNetwork.node[1].appl wsaLengthBits 250bit
attr unit bit
par myHospitalNetwork.node[1].appl wsaInterval 1s
attr unit s
par myHospitalNetwork.node[1].appl appName "\"My first Veins App!\""
scalar myHospitalNetwork.node[1].appl generatedWSMs 0
scalar myHospitalNetwork.node[1].appl receivedWSMs 0
scalar myHospitalNetwork.node[1].appl generatedBSMs 106
scalar myHospitalNetwork.node[1].appl receivedBSMs 0
scalar myHospitalNetwork.node[1].appl generatedWSAs 0
scalar myHospitalNetwork.node[1].appl receivedWSAs 0
par myHospitalNetwork.node[1].nic.phy80211p typename "\"org.car2x.veins.modules.phy.PhyLayer80211p\""
par myHospitalNetwork.node[1].nic.phy80211p recordStats false
par myHospitalNetwork.node[1].nic.phy80211p usePropagationDelay true
par myHospitalNetwork.node[1].nic.phy80211p noiseFloor -98dBm
attr unit dBm
par myHospitalNetwork.node[1].nic.phy80211p useNoiseFloor true
par myHospitalNetwork.node[1].nic.phy80211p antenna "<Antenna type=\"SampledAntenna1D\" id=\"monopole\">...</Antenna> at /home/dung/omnetpp-6.0.1/workspace/lab001/simulations/eh//antenna.xml:35"
par myHospitalNetwork.node[1].nic.phy80211p antennaOffsetX 0m
attr unit m
par myHospitalNetwork.node[1].nic.phy80211p antennaOffsetY 0m
attr unit m
par myHospitalNetwork.node[1].nic.phy80211p antennaOffsetZ 1.895m
attr unit m
par myHospitalNetwork.node[1].nic.phy80211p antennaOffsetYaw 0rad
attr unit rad
par myHospitalNetwork.node[1].nic.phy80211p analogueModels "<root>...</root> at /home/dung/omnetpp-6.0.1/workspace/lab001/simulations/eh//config.xml:34"
par myHospitalNetwork.node[1].nic.phy80211p decider "<root>...</root> at /home/dung/omnetpp-6.0.1/workspace/lab001/simulations/eh//config.xml:34"
par myHospitalNetwork.node[1].nic.phy80211p minPowerLevel -110dBm
attr unit dBm
par myHospitalNetwork.node[1].nic.phy80211p timeRXToTX 0s
attr unit s
par myHospitalNetwork.node[1].nic.phy80211p timeRXToSleep 0s
attr unit s
par myHospitalNetwork.node[1].nic.phy80211p timeTXToRX 0s
attr unit s
par myHospitalNetwork.node[1].nic.phy80211p timeTXToSleep 0s
attr unit s
par myHospitalNetwork.node[1].nic.phy80211p timeSleepToRX 0s
attr unit s
par myHospitalNetwork.node[1].nic.phy80211p timeSleepToTX 0s
attr unit s
par myHospitalNetwork.node[1].nic.phy80211p initialRadioState 0
par myHospitalNetwork.node[1].nic.phy80211p radioMinAtt 1
par myHospitalNetwork.node[1].nic.phy80211p radioMaxAtt 0
par myHospitalNetwork.node[1].nic.phy80211p nbRadioChannels 1
par myHospitalNetwork.node[1].nic.phy80211p initialRadioChannel 0
par myHospitalNetwork.node[1].nic.phy80211p ccaThreshold -65dBm
attr unit dBm
par myHospitalNetwork.node[1].nic.phy80211p collectCollisionStatistics false
par myHospitalNetwork.node[1].nic.phy80211p allowTxDuringRx false
scalar myHospitalNetwork.node[1].nic.phy80211p busyTime 0.031487153946266
par myHospitalNetwork.node[1].nic.mac1609_4 typename "\"org.car2x.veins.modules.mac.ieee80211p.Mac1609_4\""
par myHospitalNetwork.node[1].nic.mac1609_4 notAffectedByHostState false
par myHospitalNetwork.node[1].nic.mac1609_4 headerLength 0bit
attr unit bit
par myHospitalNetwork.node[1].nic.mac1609_4 address "\"auto\""
par myHospitalNetwork.node[1].nic.mac1609_4 useServiceChannel true
par myHospitalNetwork.node[1].nic.mac1609_4 serviceChannel 1
par myHospitalNetwork.node[1].nic.mac1609_4 bitrate 6000000bps
attr unit bps
par myHospitalNetwork.node[1].nic.mac1609_4 syncOffset 0.0003s
attr unit s
par myHospitalNetwork.node[1].nic.mac1609_4 txPower 20mW
attr unit mW
par myHospitalNetwork.node[1].nic.mac1609_4 queueSize 0
par myHospitalNetwork.node[1].nic.mac1609_4 dot11RTSThreshold 12000bit
attr unit bit
par myHospitalNetwork.node[1].nic.mac1609_4 dot11ShortRetryLimit 7
par myHospitalNetwork.node[1].nic.mac1609_4 dot11LongRetryLimit 4
par myHospitalNetwork.node[1].nic.mac1609_4 ackLength 112bit
attr unit bit
par myHospitalNetwork.node[1].nic.mac1609_4 useAcks false
par myHospitalNetwork.node[1].nic.mac1609_4 frameErrorRate 0
par myHospitalNetwork.node[1].nic.mac1609_4 ackErrorRate 0
scalar myHospitalNetwork.node[1].nic.mac1609_4 ReceivedUnicastPackets 0
scalar myHospitalNetwork.node[1].nic.mac1609_4 ReceivedBroadcasts 853
scalar myHospitalNetwork.node[1].nic.mac1609_4 SentPackets 210
scalar myHospitalNetwork.node[1].nic.mac1609_4 SentAcknowledgements 0
scalar myHospitalNetwork.node[1].nic.mac1609_4 RetriesExceeded 0
scalar myHospitalNetwork.node[1].nic.mac1609_4 SNIRLostPackets 963
scalar myHospitalNetwork.node[1].nic.mac1609_4 RXTXLostPackets 153
scalar myHospitalNetwork.node[1].nic.mac1609_4 TotalLostPackets 1116
scalar myHospitalNetwork.node[1].nic.mac1609_4 DroppedPacketsInMac 0
scalar myHospitalNetwork.node[1].nic.mac1609_4 TooLittleTime 210
scalar myHospitalNetwork.node[1].nic.mac1609_4 TimesIntoBackoff 421
scalar myHospitalNetwork.node[1].nic.mac1609_4 SlotsBackoff 299
scalar myHospitalNetwork.node[1].nic.mac1609_4 NumInternalContention 0
scalar myHospitalNetwork.node[1].nic.mac1609_4 totalBusyTime 0.232898155455
scalar myHospitalNetwork.node[1].nic.mac1609_4 retriesExceeded:count 0
attr recordingmode count
attr source org_car2x_veins_modules_mac_sigRetriesExceeded
scalar myHospitalNetwork.node[1].nic.mac1609_4 sentAcks:count 0
attr recordingmode count
attr source org_car2x_veins_modules_mac_sigSentAck
scalar myHospitalNetwork.node[1].nic.mac1609_4 sentPackets:count 210
attr recordingmode count
attr source org_car2x_veins_modules_mac_sigSentPacket
scalar myHospitalNetwork.node[1].nic.mac1609_4 collisions:count 0
attr recordingmode count
attr source org_car2x_veins_modules_mac_sigCollision
scalar myHospitalNetwork.node[1].nic.mac1609_4 channelBusy:timeavg 0.02196282697191
attr recordingmode timeavg
attr source org_car2x_veins_modules_mac_sigChannelBusy
par myHospitalNetwork.node[1].nic typename "\"org.car2x.veins.modules.nic.Nic80211p\""
par myHospitalNetwork.node[1].nic connectionManagerName "\"connectionManager\""
par myHospitalNetwork.node[1].veinsmobility typename "\"org.car2x.veins.modules.mobility.traci.TraCIMobility\""
par myHospitalNetwork.node[1].veinsmobility notAffectedByHostState true
par myHospitalNetwork.node[1].veinsmobility x 0
par myHospitalNetwork.node[1].veinsmobility y 0
par myHospitalNetwork.node[1].veinsmobility z 0
par myHospitalNetwork.node[1].veinsmobility xOrientation 1
par myHospitalNetwork.node[1].veinsmobility yOrientation 0
par myHospitalNetwork.node[1].veinsmobility zOrientation 0
par myHospitalNetwork.node[1].veinsmobility hostPositionOffset 0m
attr unit m
par myHospitalNetwork.node[1].veinsmobility setHostSpeed false
par myHospitalNetwork.node[1].veinsmobility accidentCount 0
par myHospitalNetwork.node[1].veinsmobility accidentStart 57.5471s
attr unit s
par myHospitalNetwork.node[1].veinsmobility accidentDuration "uniform(30s, 60s)"
attr unit s
par myHospitalNetwork.node[1].veinsmobility accidentInterval "uniform(30s, 60s)"
attr unit s
scalar myHospitalNetwork.node[1].veinsmobility startTime 1.1
scalar myHospitalNetwork.node[1].veinsmobility totalTime 10.6
scalar myHospitalNetwork.node[1].veinsmobility stopTime 11.704197526706
scalar myHospitalNetwork.node[1].veinsmobility minSpeed 1.9
scalar myHospitalNetwork.node[1].veinsmobility maxSpeed 4.2868
scalar myHospitalNetwork.node[1].veinsmobility totalDistance 44.870436648275
scalar myHospitalNetwork.node[1].veinsmobility totalCO2Emission 15.931934275564
par myHospitalNetwork.node[1] typename "\"org.car2x.veins.nodes.Car\""
par myHospitalNetwork.node[1] applType "\"AGVControlApp\""
par myHospitalNetwork.node[1] nicType "\"Nic80211p\""
par myHospitalNetwork.node[1] veinsmobilityType "\"org.car2x.veins.modules.mobility.traci.TraCIMobility\""
par myHospitalNetwork.node[2].appl typename "\"lab001.veins_inet.AGVControlApp\""
par myHospitalNetwork.node[2].appl headerLength 80bit
attr unit bit
par myHospitalNetwork.node[2].appl sendBeacons false
par myHospitalNetwork.node[2].appl beaconLengthBits 256bit
attr unit bit
par myHospitalNetwork.node[2].appl beaconUserPriority 7
par myHospitalNetwork.node[2].appl beaconInterval 0.1s
attr unit s
par myHospitalNetwork.node[2].appl dataLengthBits 1024bit
attr unit bit
par myHospitalNetwork.node[2].appl dataOnSch true
par myHospitalNetwork.node[2].appl dataUserPriority 7
par myHospitalNetwork.node[2].appl avoidBeaconSynchronization true
par myHospitalNetwork.node[2].appl sendWSA false
par myHospitalNetwork.node[2].appl wsaLengthBits 250bit
attr unit bit
par myHospitalNetwork.node[2].appl wsaInterval 1s
attr unit s
par myHospitalNetwork.node[2].appl appName "\"My first Veins App!\""
scalar myHospitalNetwork.node[2].appl generatedWSMs 0
scalar myHospitalNetwork.node[2].appl receivedWSMs 0
scalar myHospitalNetwork.node[2].appl generatedBSMs 96
scalar myHospitalNetwork.node[2].appl receivedBSMs 0
scalar myHospitalNetwork.node[2].appl generatedWSAs 0
scalar myHospitalNetwork.node[2].appl receivedWSAs 0
par myHospitalNetwork.node[2].nic.phy80211p typename "\"org.car2x.veins.modules.phy.PhyLayer80211p\""
par myHospitalNetwork.node[2].nic.phy80211p recordStats false
par myHospitalNetwork.node[2].nic.phy80211p usePropagationDelay true
par myHospitalNetwork.node[2].nic.phy80211p noiseFloor -98dBm
attr unit dBm
par myHospitalNetwork.node[2].nic.phy80211p useNoiseFloor true
par myHospitalNetwork.node[2].nic.phy80211p antenna "<Antenna type=\"SampledAntenna1D\" id=\"monopole\">...</Antenna> at /home/dung/omnetpp-6.0.1/workspace/lab001/simulations/eh//antenna.xml:35"
par myHospitalNetwork.node[2].nic.phy80211p antennaOffsetX 0m
attr unit m
par myHospitalNetwork.node[2].nic.phy80211p antennaOffsetY 0m
attr unit m
par myHospitalNetwork.node[2].nic.phy80211p antennaOffsetZ 1.895m
attr unit m
par myHospitalNetwork.node[2].nic.phy80211p antennaOffsetYaw 0rad
attr unit rad
par myHospitalNetwork.node[2].nic.phy80211p analogueModels "<root>...</root> at /home/dung/omnetpp-6.0.1/workspace/lab001/simulations/eh//config.xml:34"
par myHospitalNetwork.node[2].nic.phy80211p decider "<root>...</root> at /home/dung/omnetpp-6.0.1/workspace/lab001/simulations/eh//config.xml:34"
par myHospitalNetwork.node[2].nic.phy80211p minPowerLevel -110dBm
attr unit dBm
par myHospitalNetwork.node[2].nic.phy80211p timeRXToTX 0s
attr unit s
par myHospitalNetwork.node[2].nic.phy80211p timeRXToSleep 0s
attr unit s
par myHospitalNetwork.node[2].nic.phy80211p timeTXToRX 0s
attr unit s
par myHospitalNetwork.node[2].nic.phy80211p timeTXToSleep 0s
attr unit s
par myHospitalNetwork.node[2].nic.phy80211p timeSleepToRX 0s
attr unit s
par myHospitalNetwork.node[2].nic.phy80211p timeSleepToTX 0s
attr unit s
par myHospitalNetwork.node[2].nic.phy80211p initialRadioState 0
par myHospitalNetwork.node[2].nic.phy80211p radioMinAtt 1
par myHospitalNetwork.node[2].nic.phy80211p radioMaxAtt 0
par myHospitalNetwork.node[2].nic.phy80211p nbRadioChannels 1
par myHospitalNetwork.node[2].nic.phy80211p initialRadioChannel 0
par myHospitalNetwork.node[2].nic.phy80211p ccaThreshold -65dBm
attr unit dBm
par myHospitalNetwork.node[2].nic.phy80211p collectCollisionStatistics false
par myHospitalNetwork.node[2].nic.phy80211p allowTxDuringRx false
scalar myHospitalNetwork.node[2].nic.phy80211p busyTime 0.031213851981533
par myHospitalNetwork.node[2].nic.mac1609_4 typename "\"org.car2x.veins.modules.mac.ieee80211p.Mac1609_4\""
par myHospitalNetwork.node[2].nic.mac1609_4 notAffectedByHostState false
par myHospitalNetwork.node[2].nic.mac1609_4 headerLength 0bit
attr unit bit
par myHospitalNetwork.node[2].nic.mac1609_4 address "\"auto\""
par myHospitalNetwork.node[2].nic.mac1609_4 useServiceChannel true
par myHospitalNetwork.node[2].nic.mac1609_4 serviceChannel 1
par myHospitalNetwork.node[2].nic.mac1609_4 bitrate 6000000bps
attr unit bps
par myHospitalNetwork.node[2].nic.mac1609_4 syncOffset 0.0003s
attr unit s
par myHospitalNetwork.node[2].nic.mac1609_4 txPower 20mW
attr unit mW
par myHospitalNetwork.node[2].nic.mac1609_4 queueSize 0
par myHospitalNetwork.node[2].nic.mac1609_4 dot11RTSThreshold 12000bit
attr unit bit
par myHospitalNetwork.node[2].nic.mac1609_4 dot11ShortRetryLimit 7
par myHospitalNetwork.node[2].nic.mac1609_4 dot11LongRetryLimit 4
par myHospitalNetwork.node[2].nic.mac1609_4 ackLength 112bit
attr unit bit
par myHospitalNetwork.node[2].nic.mac1609_4 useAcks false
par myHospitalNetwork.node[2].nic.mac1609_4 frameErrorRate 0
par myHospitalNetwork.node[2].nic.mac1609_4 ackErrorRate 0
scalar myHospitalNetwork.node[2].nic.mac1609_4 ReceivedUnicastPackets 0
scalar myHospitalNetwork.node[2].nic.mac1609_4 ReceivedBroadcasts 672
scalar myHospitalNetwork.node[2].nic.mac1609_4 SentPackets 190
scalar myHospitalNetwork.node[2].nic.mac1609_4 SentAcknowledgements 0
scalar myHospitalNetwork.node[2].nic.mac1609_4 RetriesExceeded 0
scalar myHospitalNetwork.node[2].nic.mac1609_4 SNIRLostPackets 930
scalar myHospitalNetwork.node[2].nic.mac1609_4 RXTXLostPackets 312
scalar myHospitalNetwork.node[2].nic.mac1609_4 TotalLostPackets 1242
scalar myHospitalNetwork.node[2].nic.mac1609_4 DroppedPacketsInMac 0
scalar myHospitalNetwork.node[2].nic.mac1609_4 TooLittleTime 90
scalar myHospitalNetwork.node[2].nic.mac1609_4 TimesIntoBackoff 381
scalar myHospitalNetwork.node[2].nic.mac1609_4 SlotsBackoff 313
scalar myHospitalNetwork.node[2].nic.mac1609_4 NumInternalContention 0
scalar myHospitalNetwork.node[2].nic.mac1609_4 totalBusyTime 0.233153630234
scalar myHospitalNetwork.node[2].nic.mac1609_4 retriesExceeded:count 0
attr recordingmode count
attr source org_car2x_veins_modules_mac_sigRetriesExceeded
scalar myHospitalNetwork.node[2].nic.mac1609_4 sentAcks:count 0
attr recordingmode count
attr source org_car2x_veins_modules_mac_sigSentAck
scalar myHospitalNetwork.node[2].nic.mac1609_4 sentPackets:count 190
attr recordingmode count
attr source org_car2x_veins_modules_mac_sigSentPacket
scalar myHospitalNetwork.node[2].nic.mac1609_4 collisions:count 0
attr recordingmode count
attr source org_car2x_veins_modules_mac_sigCollision
scalar myHospitalNetwork.node[2].nic.mac1609_4 channelBusy:timeavg 0.02428687253645
attr recordingmode timeavg
attr source org_car2x_veins_modules_mac_sigChannelBusy
par myHospitalNetwork.node[2].nic typename "\"org.car2x.veins.modules.nic.Nic80211p\""
par myHospitalNetwork.node[2].nic connectionManagerName "\"connectionManager\""
par myHospitalNetwork.node[2].veinsmobility typename "\"org.car2x.veins.modules.mobility.traci.TraCIMobility\""
par myHospitalNetwork.node[2].veinsmobility notAffectedByHostState true
par myHospitalNetwork.node[2].veinsmobility x 0
par myHospitalNetwork.node[2].veinsmobility y 0
par myHospitalNetwork.node[2].veinsmobility z 0
par myHospitalNetwork.node[2].veinsmobility xOrientation 1
par myHospitalNetwork.node[2].veinsmobility yOrientation 0
par myHospitalNetwork.node[2].veinsmobility zOrientation 0
par myHospitalNetwork.node[2].veinsmobility hostPositionOffset 0m
attr unit m
par myHospitalNetwork.node[2].veinsmobility setHostSpeed false
par myHospitalNetwork.node[2].veinsmobility accidentCount 0
par myHospitalNetwork.node[2].veinsmobility accidentStart 34.796s
attr unit s
par myHospitalNetwork.node[2].veinsmobility accidentDuration "uniform(30s, 60s)"
attr unit s
par myHospitalNetwork.node[2].veinsmobility accidentInterval "uniform(30s, 60s)"
attr unit s
scalar myHospitalNetwork.node[2].veinsmobility startTime 2.1
scalar myHospitalNetwork.node[2].veinsmobility totalTime 9.6
scalar myHospitalNetwork.node[2].veinsmobility stopTime 11.704197526706
scalar myHospitalNetwork.node[2].veinsmobility minSpeed 1.9
scalar myHospitalNetwork.node[2].veinsmobility maxSpeed 3.8648
scalar myHospitalNetwork.node[2].veinsmobility totalDistance 36.660174531527
scalar myHospitalNetwork.node[2].veinsmobility totalCO2Emission 13.959390723654
par myHospitalNetwork.node[2] typename "\"org.car2x.veins.nodes.Car\""
par myHospitalNetwork.node[2] applType "\"AGVControlApp\""
par myHospitalNetwork.node[2] nicType "\"Nic80211p\""
par myHospitalNetwork.node[2] veinsmobilityType "\"org.car2x.veins.modules.mobility.traci.TraCIMobility\""
par myHospitalNetwork.node[3].appl typename "\"lab001.veins_inet.AGVControlApp\""
par myHospitalNetwork.node[3].appl headerLength 80bit
attr unit bit
par myHospitalNetwork.node[3].appl sendBeacons false
par myHospitalNetwork.node[3].appl beaconLengthBits 256bit
attr unit bit
par myHospitalNetwork.node[3].appl beaconUserPriority 7
par myHospitalNetwork.node[3].appl beaconInterval 0.1s
attr unit s
par myHospitalNetwork.node[3].appl dataLengthBits 1024bit
attr unit bit
par myHospitalNetwork.node[3].appl dataOnSch true
par myHospitalNetwork.node[3].appl dataUserPriority 7
par myHospitalNetwork.node[3].appl avoidBeaconSynchronization true
par myHospitalNetwork.node[3].appl sendWSA false
par myHospitalNetwork.node[3].appl wsaLengthBits 250bit
attr unit bit
par myHospitalNetwork.node[3].appl wsaInterval 1s
attr unit s
par myHospitalNetwork.node[3].appl appName "\"My first Veins App!\""
scalar myHospitalNetwork.node[3].appl generatedWSMs 0
scalar myHospitalNetwork.node[3].appl receivedWSMs 0
scalar myHospitalNetwork.node[3].appl generatedBSMs 96
scalar myHospitalNetwork.node[3].appl receivedBSMs 0
scalar myHospitalNetwork.node[3].appl generatedWSAs 0
scalar myHospitalNetwork.node[3].appl receivedWSAs 0
par myHospitalNetwork.node[3].nic.phy80211p typename "\"org.car2x.veins.modules.phy.PhyLayer80211p\""
par myHospitalNetwork.node[3].nic.phy80211p recordStats false
par myHospitalNetwork.node[3].nic.phy80211p usePropagationDelay true
par myHospitalNetwork.node[3].nic.phy80211p noiseFloor -98dBm
attr unit dBm
par myHospitalNetwork.node[3].nic.phy80211p useNoiseFloor true
par myHospitalNetwork.node[3].nic.phy80211p antenna "<Antenna type=\"SampledAntenna1D\" id=\"monopole\">...</Antenna> at /home/dung/omnetpp-6.0.1/workspace/lab001/simulations/eh//antenna.xml:35"
par myHospitalNetwork.node[3].nic.phy80211p antennaOffsetX 0m
attr unit m
par myHospitalNetwork.node[3].nic.phy80211p antennaOffsetY 0m
attr unit m
par myHospitalNetwork.node[3].nic.phy80211p antennaOffsetZ 1.895m
attr unit m
par myHospitalNetwork.node[3].nic.phy80211p antennaOffsetYaw 0rad
attr unit rad
par myHospitalNetwork.node[3].nic.phy80211p analogueModels "<root>...</root> at /home/dung/omnetpp-6.0.1/workspace/lab001/simulations/eh//config.xml:34"
par myHospitalNetwork.node[3].nic.phy80211p decider "<root>...</root> at /home/dung/omnetpp-6.0.1/workspace/lab001/simulations/eh//config.xml:34"
par myHospitalNetwork.node[3].nic.phy80211p minPowerLevel -110dBm
attr unit dBm
par myHospitalNetwork.node[3].nic.phy80211p timeRXToTX 0s
attr unit s
par myHospitalNetwork.node[3].nic.phy80211p timeRXToSleep 0s
attr unit s
par myHospitalNetwork.node[3].nic.phy80211p timeTXToRX 0s
attr unit s
par myHospitalNetwork.node[3].nic.phy80211p timeTXToSleep 0s
attr unit s
par myHospitalNetwork.node[3].nic.phy80211p timeSleepToRX 0s
attr unit s
par myHospitalNetwork.node[3].nic.phy80211p timeSleepToTX 0s
attr unit s
par myHospitalNetwork.node[3].nic.phy80211p initialRadioState 0
par myHospitalNetwork.node[3].nic.phy80211p radioMinAtt 1
par myHospitalNetwork.node[3].nic.phy80211p radioMaxAtt 0
par myHospitalNetwork.node[3].nic.phy80211p nbRadioChannels 1
par myHospitalNetwork.node[3].nic.phy80211p initialRadioChannel 0
par myHospitalNetwork.node[3].nic.phy80211p ccaThreshold -65dBm
attr unit dBm
par myHospitalNetwork.node[3].nic.phy80211p collectCollisionStatistics false
par myHospitalNetwork.node[3].nic.phy80211p allowTxDuringRx false
scalar myHospitalNetwork.node[3].nic.phy80211p busyTime 0.031516219773524
par myHospitalNetwork.node[3].nic.mac1609_4 typename "\"org.car2x.veins.modules.mac.ieee80211p.Mac1609_4\""
par myHospitalNetwork.node[3].nic.mac1609_4 notAffectedByHostState false
par myHospitalNetwork.node[3].nic.mac1609_4 headerLength 0bit
attr unit bit
par myHospitalNetwork.node[3].nic.mac1609_4 address "\"auto\""
par myHospitalNetwork.node[3].nic.mac1609_4 useServiceChannel true
par myHospitalNetwork.node[3].nic.mac1609_4 serviceChannel 1
par myHospitalNetwork.node[3].nic.mac1609_4 bitrate 6000000bps
attr unit bps
par myHospitalNetwork.node[3].nic.mac1609_4 syncOffset 0.0003s
attr unit s
par myHospitalNetwork.node[3].nic.mac1609_4 txPower 20mW
attr unit mW
par myHospitalNetwork.node[3].nic.mac1609_4 queueSize 0
par myHospitalNetwork.node[3].nic.mac1609_4 dot11RTSThreshold 12000bit
attr unit bit
par myHospitalNetwork.node[3].nic.mac1609_4 dot11ShortRetryLimit 7
par myHospitalNetwork.node[3].nic.mac1609_4 dot11LongRetryLimit 4
par myHospitalNetwork.node[3].nic.mac1609_4 ackLength 112bit
attr unit bit
par myHospitalNetwork.node[3].nic.mac1609_4 useAcks false
par myHospitalNetwork.node[3].nic.mac1609_4 frameErrorRate 0
par myHospitalNetwork.node[3].nic.mac1609_4 ackErrorRate 0
scalar myHospitalNetwork.node[3].nic.mac1609_4 ReceivedUnicastPackets 0
scalar myHospitalNetwork.node[3].nic.mac1609_4 ReceivedBroadcasts 674
scalar myHospitalNetwork.node[3].nic.mac1609_4 SentPackets 190
scalar myHospitalNetwork.node[3].nic.mac1609_4 SentAcknowledgements 0
scalar myHospitalNetwork.node[3].nic.mac1609_4 RetriesExceeded 0
scalar myHospitalNetwork.node[3].nic.mac1609_4 SNIRLostPackets 951
scalar myHospitalNetwork.node[3].nic.mac1609_4 RXTXLostPackets 289
scalar myHospitalNetwork.node[3].nic.mac1609_4 TotalLostPackets 1240
scalar myHospitalNetwork.node[3].nic.mac1609_4 DroppedPacketsInMac 0
scalar myHospitalNetwork.node[3].nic.mac1609_4 TooLittleTime 90
scalar myHospitalNetwork.node[3].nic.mac1609_4 TimesIntoBackoff 381
scalar myHospitalNetwork.node[3].nic.mac1609_4 SlotsBackoff 301
scalar myHospitalNetwork.node[3].nic.mac1609_4 NumInternalContention 0
scalar myHospitalNetwork.node[3].nic.mac1609_4 totalBusyTime 0.226752260093
scalar myHospitalNetwork.node[3].nic.mac1609_4 retriesExceeded:count 0
attr recordingmode count
attr source org_car2x_veins_modules_mac_sigRetriesExceeded
scalar myHospitalNetwork.node[3].nic.mac1609_4 sentAcks:count 0
attr recordingmode count
attr source org_car2x_veins_modules_mac_sigSentAck
scalar myHospitalNetwork.node[3].nic.mac1609_4 sentPackets:count 190
attr recordingmode count
attr source org_car2x_veins_modules_mac_sigSentPacket
scalar myHospitalNetwork.node[3].nic.mac1609_4 collisions:count 0
attr recordingmode count
attr source org_car2x_veins_modules_mac_sigCollision
scalar myHospitalNetwork.node[3].nic.mac1609_4 channelBusy:timeavg 0.023620353877791
attr recordingmode timeavg
attr source org_car2x_veins_modules_mac_sigChannelBusy
par myHospitalNetwork.node[3].nic typename "\"org.car2x.veins.modules.nic.Nic80211p\""
par myHospitalNetwork.node[3].nic connectionManagerName "\"connectionManager\""
par myHospitalNetwork.node[3].veinsmobility typename "\"org.car2x.veins.modules.mobility.traci.TraCIMobility\""
par myHospitalNetwork.node[3].veinsmobility notAffectedByHostState true
par myHospitalNetwork.node[3].veinsmobility x 0
par myHospitalNetwork.node[3].veinsmobility y 0
par myHospitalNetwork.node[3].veinsmobility z 0
par myHospitalNetwork.node[3].veinsmobility xOrientation 1
par myHospitalNetwork.node[3].veinsmobility yOrientation 0
par myHospitalNetwork.node[3].veinsmobility zOrientation 0
par myHospitalNetwork.node[3].veinsmobility hostPositionOffset 0m
attr unit m
par myHospitalNetwork.node[3].veinsmobility setHostSpeed false
par myHospitalNetwork.node[3].veinsmobility accidentCount 0
par myHospitalNetwork.node[3].veinsmobility accidentStart 33.8658s
attr unit s
par myHospitalNetwork.node[3].veinsmobility accidentDuration "uniform(30s, 60s)"
attr unit s
par myHospitalNetwork.node[3].veinsmobility accidentInterval "uniform(30s, 60s)"
attr unit s
scalar myHospitalNetwork.node[3].veinsmobility startTime 2.1
scalar myHospitalNetwork.node[3].veinsmobility totalTime 9.6
scalar myHospitalNetwork.node[3].veinsmobility stopTime 11.704197526706
scalar myHospitalNetwork.node[3].veinsmobility minSpeed 1.9
scalar myHospitalNetwork.node[3].veinsmobility maxSpeed 4.4028
scalar myHospitalNetwork.node[3].veinsmobility totalDistance 41.65077010055
scalar myHospitalNetwork.node[3].veinsmobility totalCO2Emission 14.79944525059
par myHospitalNetwork.node[3] typename "\"org.car2x.veins.nodes.Car\""
par myHospitalNetwork.node[3] applType "\"AGVControlApp\""
par myHospitalNetwork.node[3] nicType "\"Nic80211p\""
par myHospitalNetwork.node[3] veinsmobilityType "\"org.car2x.veins.modules.mobility.traci.TraCIMobility\""
par myHospitalNetwork.node[4].appl typename "\"lab001.veins_inet.AGVControlApp\""
par myHospitalNetwork.node[4].appl headerLength 80bit
attr unit bit
par myHospitalNetwork.node[4].appl sendBeacons false
par myHospitalNetwork.node[4].appl beaconLengthBits 256bit
attr unit bit
par myHospitalNetwork.node[4].appl beaconUserPriority 7
par myHospitalNetwork.node[4].appl beaconInterval 0.1s
attr unit s
par myHospitalNetwork.node[4].appl dataLengthBits 1024bit
attr unit bit
par myHospitalNetwork.node[4].appl dataOnSch true
par myHospitalNetwork.node[4].appl dataUserPriority 7
par myHospitalNetwork.node[4].appl avoidBeaconSynchronization true
par myHospitalNetwork.node[4].appl sendWSA false
par myHospitalNetwork.node[4].appl wsaLengthBits 250bit
attr unit bit
par myHospitalNetwork.node[4].appl wsaInterval 1s
attr unit s
par myHospitalNetwork.node[4].appl appName "\"My first Veins App!\""
scalar myHospitalNetwork.node[4].appl generatedWSMs 0
scalar myHospitalNetwork.node[4].appl receivedWSMs 0
scalar myHospitalNetwork.node[4].appl generatedBSMs 86
scalar myHospitalNetwork.node[4].appl receivedBSMs 0
scalar myHospitalNetwork.node[4].appl generatedWSAs 0
scalar myHospitalNetwork.node[4].appl receivedWSAs 0
par myHospitalNetwork.node[4].nic.phy80211p typename "\"org.car2x.veins.modules.phy.PhyLayer80211p\""
par myHospitalNetwork.node[4].nic.phy80211p recordStats false
par myHospitalNetwork.node[4].nic.phy80211p usePropagationDelay true
par myHospitalNetwork.node[4].nic.phy80211p noiseFloor -98dBm
attr unit dBm
par myHospitalNetwork.node[4].nic.phy80211p useNoiseFloor true
par myHospitalNetwork.node[4].nic.phy80211p antenna "<Antenna type=\"SampledAntenna1D\" id=\"monopole\">...</Antenna> at /home/dung/omnetpp-6.0.1/workspace/lab001/simulations/eh//antenna.xml:35"
par myHospitalNetwork.node[4].nic.phy80211p antennaOffsetX 0m
attr unit m
par myHospitalNetwork.node[4].nic.phy80211p antennaOffsetY 0m
attr unit m
par myHospitalNetwork.node[4].nic.phy80211p antennaOffsetZ 1.895m
attr unit m
par myHospitalNetwork.node[4].nic.phy80211p antennaOffsetYaw 0rad
attr unit rad
par myHospitalNetwork.node[4].nic.phy80211p analogueModels "<root>...</root> at /home/dung/omnetpp-6.0.1/workspace/lab001/simulations/eh//config.xml:34"
par myHospitalNetwork.node[4].nic.phy80211p decider "<root>...</root> at /home/dung/omnetpp-6.0.1/workspace/lab001/simulations/eh//config.xml:34"
par myHospitalNetwork.node[4].nic.phy80211p minPowerLevel -110dBm
attr unit dBm
par myHospitalNetwork.node[4].nic.phy80211p timeRXToTX 0s
attr unit s
par myHospitalNetwork.node[4].nic.phy80211p timeRXToSleep 0s
attr unit s
par myHospitalNetwork.node[4].nic.phy80211p timeTXToRX 0s
attr unit s
par myHospitalNetwork.node[4].nic.phy80211p timeTXToSleep 0s
attr unit s
par myHospitalNetwork.node[4].nic.phy80211p timeSleepToRX 0s
attr unit s
par myHospitalNetwork.node[4].nic.phy80211p timeSleepToTX 0s
attr unit s
par myHospitalNetwork.node[4].nic.phy80211p initialRadioState 0
par myHospitalNetwork.node[4].nic.phy80211p radioMinAtt 1
par myHospitalNetwork.node[4].nic.phy80211p radioMaxAtt 0
par myHospitalNetwork.node[4].nic.phy80211p nbRadioChannels 1
par myHospitalNetwork.node[4].nic.phy80211p initialRadioChannel 0
par myHospitalNetwork.node[4].nic.phy80211p ccaThreshold -65dBm
attr unit dBm
par myHospitalNetwork.node[4].nic.phy80211p collectCollisionStatistics false
par myHospitalNetwork.node[4].nic.phy80211p allowTxDuringRx false
scalar myHospitalNetwork.node[4].nic.phy80211p busyTime 0.036026137131079
par myHospitalNetwork.node[4].nic.mac1609_4 typename "\"org.car2x.veins.modules.mac.ieee80211p.Mac1609_4\""
par myHospitalNetwork.node[4].nic.mac1609_4 notAffectedByHostState false
par myHospitalNetwork.node[4].nic.mac1609_4 headerLength 0bit
attr unit bit
par myHospitalNetwork.node[4].nic.mac1609_4 address "\"auto\""
par myHospitalNetwork.node[4].nic.mac1609_4 useServiceChannel true
par myHospitalNetwork.node[4].nic.mac1609_4 serviceChannel 1
par myHospitalNetwork.node[4].nic.mac1609_4 bitrate 6000000bps
attr unit bps
par myHospitalNetwork.node[4].nic.mac1609_4 syncOffset 0.0003s
attr unit s
par myHospitalNetwork.node[4].nic.mac1609_4 txPower 20mW
attr unit mW
par myHospitalNetwork.node[4].nic.mac1609_4 queueSize 0
par myHospitalNetwork.node[4].nic.mac1609_4 dot11RTSThreshold 12000bit
attr unit bit
par myHospitalNetwork.node[4].nic.mac1609_4 dot11ShortRetryLimit 7
par myHospitalNetwork.node[4].nic.mac1609_4 dot11LongRetryLimit 4
par myHospitalNetwork.node[4].nic.mac1609_4 ackLength 112bit
attr unit bit
par myHospitalNetwork.node[4].nic.mac1609_4 useAcks false
par myHospitalNetwork.node[4].nic.mac1609_4 frameErrorRate 0
par myHospitalNetwork.node[4].nic.mac1609_4 ackErrorRate 0
scalar myHospitalNetwork.node[4].nic.mac1609_4 ReceivedUnicastPackets 0
scalar myHospitalNetwork.node[4].nic.mac1609_4 ReceivedBroadcasts 738
scalar myHospitalNetwork.node[4].nic.mac1609_4 SentPackets 171
scalar myHospitalNetwork.node[4].nic.mac1609_4 SentAcknowledgements 0
scalar myHospitalNetwork.node[4].nic.mac1609_4 RetriesExceeded 0
scalar myHospitalNetwork.node[4].nic.mac1609_4 SNIRLostPackets 961
scalar myHospitalNetwork.node[4].nic.mac1609_4 RXTXLostPackets 102
scalar myHospitalNetwork.node[4].nic.mac1609_4 TotalLostPackets 1063
scalar myHospitalNetwork.node[4].nic.mac1609_4 DroppedPacketsInMac 0
scalar myHospitalNetwork.node[4].nic.mac1609_4 TooLittleTime 138
scalar myHospitalNetwork.node[4].nic.mac1609_4 TimesIntoBackoff 352
scalar myHospitalNetwork.node[4].nic.mac1609_4 SlotsBackoff 257
scalar myHospitalNetwork.node[4].nic.mac1609_4 NumInternalContention 0
scalar myHospitalNetwork.node[4].nic.mac1609_4 totalBusyTime 0.20845225236
scalar myHospitalNetwork.node[4].nic.mac1609_4 retriesExceeded:count 0
attr recordingmode count
attr source org_car2x_veins_modules_mac_sigRetriesExceeded
scalar myHospitalNetwork.node[4].nic.mac1609_4 sentAcks:count 0
attr recordingmode count
attr source org_car2x_veins_modules_mac_sigSentAck
scalar myHospitalNetwork.node[4].nic.mac1609_4 sentPackets:count 171
attr recordingmode count
attr source org_car2x_veins_modules_mac_sigSentPacket
scalar myHospitalNetwork.node[4].nic.mac1609_4 collisions:count 0
attr recordingmode count
attr source org_car2x_veins_modules_mac_sigCollision
scalar myHospitalNetwork.node[4].nic.mac1609_4 channelBusy:timeavg 0.024226809265245
attr recordingmode timeavg
attr source org_car2x_veins_modules_mac_sigChannelBusy
par myHospitalNetwork.node[4].nic typename "\"org.car2x.veins.modules.nic.Nic80211p\""
par myHospitalNetwork.node[4].nic connectionManagerName "\"connectionManager\""
par myHospitalNetwork.node[4].veinsmobility typename "\"org.car2x.veins.modules.mobility.traci.TraCIMobility\""
par myHospitalNetwork.node[4].veinsmobility notAffectedByHostState true
par myHospitalNetwork.node[4].veinsmobility x 0
par myHospitalNetwork.node[4].veinsmobility y 0
par myHospitalNetwork.node[4].veinsmobility z 0
par myHospitalNetwork.node[4].veinsmobility xOrientation 1
par myHospitalNetwork.node[4].veinsmobility yOrientation 0
par myHospitalNetwork.node[4].veinsmobility zOrientation 0
par myHospitalNetwork.node[4].veinsmobility hostPositionOffset 0m
attr unit m
par myHospitalNetwork.node[4].veinsmobility setHostSpeed false
par myHospitalNetwork.node[4].veinsmobility accidentCount 0
par myHospitalNetwork.node[4].veinsmobility accidentStart 58.25s
attr unit s
par myHospitalNetwork.node[4].veinsmobility accidentDuration "uniform(30s, 60s)"
attr unit s
par myHospitalNetwork.node[4].veinsmobility accidentInterval "uniform(30s, 60s)"
attr unit s
scalar myHospitalNetwork.node[4].veinsmobility startTime 3.1
scalar myHospitalNetwork.node[4].veinsmobility totalTime 8.6
scalar myHospitalNetwork.node[4].veinsmobility stopTime 11.704197526706
scalar myHospitalNetwork.node[4].veinsmobility minSpeed 1.9
scalar myHospitalNetwork.node[4].veinsmobility maxSpeed 4.3888
scalar myHospitalNetwork.node[4].veinsmobility totalDistance 37.133244966042
scalar myHospitalNetwork.node[4].veinsmobility totalCO2Emission 13.446437930776
par myHospitalNetwork.node[4] typename "\"org.car2x.veins.nodes.Car\""
par myHospitalNetwork.node[4] applType "\"AGVControlApp\""
par myHospitalNetwork.node[4] nicType "\"Nic80211p\""
par myHospitalNetwork.node[4] veinsmobilityType "\"org.car2x.veins.modules.mobility.traci.TraCIMobility\""
par myHospitalNetwork.node[5].appl typename "\"lab001.veins_inet.AGVControlApp\""
par myHospitalNetwork.node[5].appl headerLength 80bit
attr unit bit
par myHospitalNetwork.node[5].appl sendBeacons false
par myHospitalNetwork.node[5].appl beaconLengthBits 256bit
attr unit bit
par myHospitalNetwork.node[5].appl beaconUserPriority 7
par myHospitalNetwork.node[5].appl beaconInterval 0.1s
attr unit s
par myHospitalNetwork.node[5].appl dataLengthBits 1024bit
attr unit bit
par myHospitalNetwork.node[5].appl dataOnSch true
par myHospitalNetwork.node[5].appl dataUserPriority 7
par myHospitalNetwork.node[5].appl avoidBeaconSynchronization true
par myHospitalNetwork.node[5].appl sendWSA false
par myHospitalNetwork.node[5].appl wsaLengthBits 250bit
attr unit bit
par myHospitalNetwork.node[5].appl wsaInterval 1s
attr unit s
par myHospitalNetwork.node[5].appl appName "\"My first Veins App!\""
scalar myHospitalNetwork.node[5].appl generatedWSMs 0
scalar myHospitalNetwork.node[5].appl receivedWSMs 0
scalar myHospitalNetwork.node[5].appl generatedBSMs 76
scalar myHospitalNetwork.node[5].appl receivedBSMs 0
scalar myHospitalNetwork.node[5].appl generatedWSAs 0
scalar myHospitalNetwork.node[5].appl receivedWSAs 0
par myHospitalNetwork.node[5].nic.phy80211p typename "\"org.car2x.veins.modules.phy.PhyLayer80211p\""
par myHospitalNetwork.node[5].nic.phy80211p recordStats false
par myHospitalNetwork.node[5].nic.phy80211p usePropagationDelay true
par myHospitalNetwork.node[5].nic.phy80211p noiseFloor -98dBm
attr unit dBm
par myHospitalNetwork.node[5].nic.phy80211p useNoiseFloor true
par myHospitalNetwork.node[5].nic.phy80211p antenna "<Antenna type=\"SampledAntenna1D\" id=\"monopole\">...</Antenna> at /home/dung/omnetpp-6.0.1/workspace/lab001/simulations/eh//antenna.xml:35"
par myHospitalNetwork.node[5].nic.phy80211p antennaOffsetX 0m
attr unit m
par myHospitalNetwork.node[5].nic.phy80211p antennaOffsetY 0m
attr unit m
par myHospitalNetwork.node[5].nic.phy80211p antennaOffsetZ 1.895m
attr unit m
par myHospitalNetwork.node[5].nic.phy80211p antennaOffsetYaw 0rad
attr unit rad
par myHospitalNetwork.node[5].nic.phy80211p analogueModels "<root>...</root> at /home/dung/omnetpp-6.0.1/workspace/lab001/simulations/eh//config.xml:34"
par myHospitalNetwork.node[5].nic.phy80211p decider "<root>...</root> at /home/dung/omnetpp-6.0.1/workspace/lab001/simulations/eh//config.xml:34"
par myHospitalNetwork.node[5].nic.phy80211p minPowerLevel -110dBm
attr unit dBm
par myHospitalNetwork.node[5].nic.phy80211p timeRXToTX 0s
attr unit s
par myHospitalNetwork.node[5].nic.phy80211p timeRXToSleep 0s
attr unit s
par myHospitalNetwork.node[5].nic.phy80211p timeTXToRX 0s
attr unit s
par myHospitalNetwork.node[5].nic.phy80211p timeTXToSleep 0s
attr unit s
par myHospitalNetwork.node[5].nic.phy80211p timeSleepToRX 0s
attr unit s
par myHospitalNetwork.node[5].nic.phy80211p timeSleepToTX 0s
attr unit s
par myHospitalNetwork.node[5].nic.phy80211p initialRadioState 0
par myHospitalNetwork.node[5].nic.phy80211p radioMinAtt 1
par myHospitalNetwork.node[5].nic.phy80211p radioMaxAtt 0
par myHospitalNetwork.node[5].nic.phy80211p nbRadioChannels 1
par myHospitalNetwork.node[5].nic.phy80211p initialRadioChannel 0
par myHospitalNetwork.node[5].nic.phy80211p ccaThreshold -65dBm
attr unit dBm
par myHospitalNetwork.node[5].nic.phy80211p collectCollisionStatistics false
par myHospitalNetwork.node[5].nic.phy80211p allowTxDuringRx false
scalar myHospitalNetwork.node[5].nic.phy80211p busyTime 0.033614066323541
par myHospitalNetwork.node[5].nic.mac1609_4 typename "\"org.car2x.veins.modules.mac.ieee80211p.Mac1609_4\""
par myHospitalNetwork.node[5].nic.mac1609_4 notAffectedByHostState false
par myHospitalNetwork.node[5].nic.mac1609_4 headerLength 0bit
attr unit bit
par myHospitalNetwork.node[5].nic.mac1609_4 address "\"auto\""
par myHospitalNetwork.node[5].nic.mac1609_4 useServiceChannel true
par myHospitalNetwork.node[5].nic.mac1609_4 serviceChannel 1
par myHospitalNetwork.node[5].nic.mac1609_4 bitrate 6000000bps
attr unit bps
par myHospitalNetwork.node[5].nic.mac1609_4 syncOffset 0.0003s
attr unit s
par myHospitalNetwork.node[5].nic.mac1609_4 txPower 20mW
attr unit mW
par myHospitalNetwork.node[5].nic.mac1609_4 queueSize 0
par myHospitalNetwork.node[5].nic.mac1609_4 dot11RTSThreshold 12000bit
attr unit bit
par myHospitalNetwork.node[5].nic.mac1609_4 dot11ShortRetryLimit 7
par myHospitalNetwork.node[5].nic.mac1609_4 dot11LongRetryLimit 4
par myHospitalNetwork.node[5].nic.mac1609_4 ackLength 112bit
attr unit bit
par myHospitalNetwork.node[5].nic.mac1609_4 useAcks false
par myHospitalNetwork.node[5].nic.mac1609_4 frameErrorRate 0
par myHospitalNetwork.node[5].nic.mac1609_4 ackErrorRate 0
scalar myHospitalNetwork.node[5].nic.mac1609_4 ReceivedUnicastPackets 0
scalar myHospitalNetwork.node[5].nic.mac1609_4 ReceivedBroadcasts 712
scalar myHospitalNetwork.node[5].nic.mac1609_4 SentPackets 150
scalar myHospitalNetwork.node[5].nic.mac1609_4 SentAcknowledgements 0
scalar myHospitalNetwork.node[5].nic.mac1609_4 RetriesExceeded 0
scalar myHospitalNetwork.node[5].nic.mac1609_4 SNIRLostPackets 677
scalar myHospitalNetwork.node[5].nic.mac1609_4 RXTXLostPackets 270
scalar myHospitalNetwork.node[5].nic.mac1609_4 TotalLostPackets 947
scalar myHospitalNetwork.node[5].nic.mac1609_4 DroppedPacketsInMac 0
scalar myHospitalNetwork.node[5].nic.mac1609_4 TooLittleTime 150
scalar myHospitalNetwork.node[5].nic.mac1609_4 TimesIntoBackoff 301
scalar myHospitalNetwork.node[5].nic.mac1609_4 SlotsBackoff 221
scalar myHospitalNetwork.node[5].nic.mac1609_4 NumInternalContention 0
scalar myHospitalNetwork.node[5].nic.mac1609_4 totalBusyTime 0.176833431267
scalar myHospitalNetwork.node[5].nic.mac1609_4 retriesExceeded:count 0
attr recordingmode count
attr source org_car2x_veins_modules_mac_sigRetriesExceeded
scalar myHospitalNetwork.node[5].nic.mac1609_4 sentAcks:count 0
attr recordingmode count
attr source org_car2x_veins_modules_mac_sigSentAck
scalar myHospitalNetwork.node[5].nic.mac1609_4 sentPackets:count 150
attr recordingmode count
attr source org_car2x_veins_modules_mac_sigSentPacket
scalar myHospitalNetwork.node[5].nic.mac1609_4 collisions:count 0
attr recordingmode count
attr source org_car2x_veins_modules_mac_sigCollision
scalar myHospitalNetwork.node[5].nic.mac1609_4 channelBusy:timeavg 0.023254713024742
attr recordingmode timeavg
attr source org_car2x_veins_modules_mac_sigChannelBusy
par myHospitalNetwork.node[5].nic typename "\"org.car2x.veins.modules.nic.Nic80211p\""
par myHospitalNetwork.node[5].nic connectionManagerName "\"connectionManager\""
par myHospitalNetwork.node[5].veinsmobility typename "\"org.car2x.veins.modules.mobility.traci.TraCIMobility\""
par myHospitalNetwork.node[5].veinsmobility notAffectedByHostState true
par myHospitalNetwork.node[5].veinsmobility x 0
par myHospitalNetwork.node[5].veinsmobility y 0
par myHospitalNetwork.node[5].veinsmobility z 0
par myHospitalNetwork.node[5].veinsmobility xOrientation 1
par myHospitalNetwork.node[5].veinsmobility yOrientation 0
par myHospitalNetwork.node[5].veinsmobility zOrientation 0
par myHospitalNetwork.node[5].veinsmobility hostPositionOffset 0m
attr unit m
par myHospitalNetwork.node[5].veinsmobility setHostSpeed false
par myHospitalNetwork.node[5].veinsmobility accidentCount 0
par myHospitalNetwork.node[5].veinsmobility accidentStart 45.574s
attr unit s
par myHospitalNetwork.node[5].veinsmobility accidentDuration "uniform(30s, 60s)"
attr unit s
par myHospitalNetwork.node[5].veinsmobility accidentInterval "uniform(30s, 60s)"
attr unit s
scalar myHospitalNetwork.node[5].veinsmobility startTime 4.1
scalar myHospitalNetwork.node[5].veinsmobility totalTime 7.6
scalar myHospitalNetwork.node[5].veinsmobility stopTime 11.704197526706
scalar myHospitalNetwork.node[5].veinsmobility minSpeed 0
scalar myHospitalNetwork.node[5].veinsmobility maxSpeed 3.7252
scalar myHospitalNetwork.node[5].veinsmobility totalDistance 8.485
scalar myHospitalNetwork.node[5].veinsmobility totalCO2Emission 10.206694840502
par myHospitalNetwork.node[5] typename "\"org.car2x.veins.nodes.Car\""
par myHospitalNetwork.node[5] applType "\"AGVControlApp\""
par myHospitalNetwork.node[5] nicType "\"Nic80211p\""
par myHospitalNetwork.node[5] veinsmobilityType "\"org.car2x.veins.modules.mobility.traci.TraCIMobility\""
par myHospitalNetwork.node[6].appl typename "\"lab001.veins_inet.AGVControlApp\""
par myHospitalNetwork.node[6].appl headerLength 80bit
attr unit bit
par myHospitalNetwork.node[6].appl sendBeacons false
par myHospitalNetwork.node[6].appl beaconLengthBits 256bit
attr unit bit
par myHospitalNetwork.node[6].appl beaconUserPriority 7
par myHospitalNetwork.node[6].appl beaconInterval 0.1s
attr unit s
par myHospitalNetwork.node[6].appl dataLengthBits 1024bit
attr unit bit
par myHospitalNetwork.node[6].appl dataOnSch true
par myHospitalNetwork.node[6].appl dataUserPriority 7
par myHospitalNetwork.node[6].appl avoidBeaconSynchronization true
par myHospitalNetwork.node[6].appl sendWSA false
par myHospitalNetwork.node[6].appl wsaLengthBits 250bit
attr unit bit
par myHospitalNetwork.node[6].appl wsaInterval 1s
attr unit s
par myHospitalNetwork.node[6].appl appName "\"My first Veins App!\""
scalar myHospitalNetwork.node[6].appl generatedWSMs 0
scalar myHospitalNetwork.node[6].appl receivedWSMs 0
scalar myHospitalNetwork.node[6].appl generatedBSMs 66
scalar myHospitalNetwork.node[6].appl receivedBSMs 0
scalar myHospitalNetwork.node[6].appl generatedWSAs 0
scalar myHospitalNetwork.node[6].appl receivedWSAs 0
par myHospitalNetwork.node[6].nic.phy80211p typename "\"org.car2x.veins.modules.phy.PhyLayer80211p\""
par myHospitalNetwork.node[6].nic.phy80211p recordStats false
par myHospitalNetwork.node[6].nic.phy80211p usePropagationDelay true
par myHospitalNetwork.node[6].nic.phy80211p noiseFloor -98dBm
attr unit dBm
par myHospitalNetwork.node[6].nic.phy80211p useNoiseFloor true
par myHospitalNetwork.node[6].nic.phy80211p antenna "<Antenna type=\"SampledAntenna1D\" id=\"monopole\">...</Antenna> at /home/dung/omnetpp-6.0.1/workspace/lab001/simulations/eh//antenna.xml:35"
par myHospitalNetwork.node[6].nic.phy80211p antennaOffsetX 0m
attr unit m
par myHospitalNetwork.node[6].nic.phy80211p antennaOffsetY 0m
attr unit m
par myHospitalNetwork.node[6].nic.phy80211p antennaOffsetZ 1.895m
attr unit m
par myHospitalNetwork.node[6].nic.phy80211p antennaOffsetYaw 0rad
attr unit rad
par myHospitalNetwork.node[6].nic.phy80211p analogueModels "<root>...</root> at /home/dung/omnetpp-6.0.1/workspace/lab001/simulations/eh//config.xml:34"
par myHospitalNetwork.node[6].nic.phy80211p decider "<root>...</root> at /home/dung/omnetpp-6.0.1/workspace/lab001/simulations/eh//config.xml:34"
par myHospitalNetwork.node[6].nic.phy80211p minPowerLevel -110dBm
attr unit dBm
par myHospitalNetwork.node[6].nic.phy80211p timeRXToTX 0s
attr unit s
par myHospitalNetwork.node[6].nic.phy80211p timeRXToSleep 0s
attr unit s
par myHospitalNetwork.node[6].nic.phy80211p timeTXToRX 0s
attr unit s
par myHospitalNetwork.node[6].nic.phy80211p timeTXToSleep 0s
attr unit s
par myHospitalNetwork.node[6].nic.phy80211p timeSleepToRX 0s
attr unit s
par myHospitalNetwork.node[6].nic.phy80211p timeSleepToTX 0s
attr unit s
par myHospitalNetwork.node[6].nic.phy80211p initialRadioState 0
par myHospitalNetwork.node[6].nic.phy80211p radioMinAtt 1
par myHospitalNetwork.node[6].nic.phy80211p radioMaxAtt 0
par myHospitalNetwork.node[6].nic.phy80211p nbRadioChannels 1
par myHospitalNetwork.node[6].nic.phy80211p initialRadioChannel 0
par myHospitalNetwork.node[6].nic.phy80211p ccaThreshold -65dBm
attr unit dBm
par myHospitalNetwork.node[6].nic.phy80211p collectCollisionStatistics false
par myHospitalNetwork.node[6].nic.phy80211p allowTxDuringRx false
scalar myHospitalNetwork.node[6].nic.phy80211p busyTime 0.034055916572832
par myHospitalNetwork.node[6].nic.mac1609_4 typename "\"org.car2x.veins.modules.mac.ieee80211p.Mac1609_4\""
par myHospitalNetwork.node[6].nic.mac1609_4 notAffectedByHostState false
par myHospitalNetwork.node[6].nic.mac1609_4 headerLength 0bit
attr unit bit
par myHospitalNetwork.node[6].nic.mac1609_4 address "\"auto\""
par myHospitalNetwork.node[6].nic.mac1609_4 useServiceChannel true
par myHospitalNetwork.node[6].nic.mac1609_4 serviceChannel 1
par myHospitalNetwork.node[6].nic.mac1609_4 bitrate 6000000bps
attr unit bps
par myHospitalNetwork.node[6].nic.mac1609_4 syncOffset 0.0003s
attr unit s
par myHospitalNetwork.node[6].nic.mac1609_4 txPower 20mW
attr unit mW
par myHospitalNetwork.node[6].nic.mac1609_4 queueSize 0
par myHospitalNetwork.node[6].nic.mac1609_4 dot11RTSThreshold 12000bit
attr unit bit
par myHospitalNetwork.node[6].nic.mac1609_4 dot11ShortRetryLimit 7
par myHospitalNetwork.node[6].nic.mac1609_4 dot11LongRetryLimit 4
par myHospitalNetwork.node[6].nic.mac1609_4 ackLength 112bit
attr unit bit
par myHospitalNetwork.node[6].nic.mac1609_4 useAcks false
par myHospitalNetwork.node[6].nic.mac1609_4 frameErrorRate 0
par myHospitalNetwork.node[6].nic.mac1609_4 ackErrorRate 0
scalar myHospitalNetwork.node[6].nic.mac1609_4 ReceivedUnicastPackets 0
scalar myHospitalNetwork.node[6].nic.mac1609_4 ReceivedBroadcasts 585
scalar myHospitalNetwork.node[6].nic.mac1609_4 SentPackets 130
scalar myHospitalNetwork.node[6].nic.mac1609_4 SentAcknowledgements 0
scalar myHospitalNetwork.node[6].nic.mac1609_4 RetriesExceeded 0
scalar myHospitalNetwork.node[6].nic.mac1609_4 SNIRLostPackets 657
scalar myHospitalNetwork.node[6].nic.mac1609_4 RXTXLostPackets 243
scalar myHospitalNetwork.node[6].nic.mac1609_4 TotalLostPackets 900
scalar myHospitalNetwork.node[6].nic.mac1609_4 DroppedPacketsInMac 0
scalar myHospitalNetwork.node[6].nic.mac1609_4 TooLittleTime 65
scalar myHospitalNetwork.node[6].nic.mac1609_4 TimesIntoBackoff 261
scalar myHospitalNetwork.node[6].nic.mac1609_4 SlotsBackoff 193
scalar myHospitalNetwork.node[6].nic.mac1609_4 NumInternalContention 0
scalar myHospitalNetwork.node[6].nic.mac1609_4 totalBusyTime 0.149891444793
scalar myHospitalNetwork.node[6].nic.mac1609_4 retriesExceeded:count 0
attr recordingmode count
attr source org_car2x_veins_modules_mac_sigRetriesExceeded
scalar myHospitalNetwork.node[6].nic.mac1609_4 sentAcks:count 0
attr recordingmode count
attr source org_car2x_veins_modules_mac_sigSentAck
scalar myHospitalNetwork.node[6].nic.mac1609_4 sentPackets:count 130
attr recordingmode count
attr source org_car2x_veins_modules_mac_sigSentPacket
scalar myHospitalNetwork.node[6].nic.mac1609_4 collisions:count 0
attr recordingmode count
attr source org_car2x_veins_modules_mac_sigCollision
scalar myHospitalNetwork.node[6].nic.mac1609_4 channelBusy:timeavg 0.022696390316442
attr recordingmode timeavg
attr source org_car2x_veins_modules_mac_sigChannelBusy
par myHospitalNetwork.node[6].nic typename "\"org.car2x.veins.modules.nic.Nic80211p\""
par myHospitalNetwork.node[6].nic connectionManagerName "\"connectionManager\""
par myHospitalNetwork.node[6].veinsmobility typename "\"org.car2x.veins.modules.mobility.traci.TraCIMobility\""
par myHospitalNetwork.node[6].veinsmobility notAffectedByHostState true
par myHospitalNetwork.node[6].veinsmobility x 0
par myHospitalNetwork.node[6].veinsmobility y 0
par myHospitalNetwork.node[6].veinsmobility z 0
par myHospitalNetwork.node[6].veinsmobility xOrientation 1
par myHospitalNetwork.node[6].veinsmobility yOrientation 0
par myHospitalNetwork.node[6].veinsmobility zOrientation 0
par myHospitalNetwork.node[6].veinsmobility hostPositionOffset 0m
attr unit m
par myHospitalNetwork.node[6].veinsmobility setHostSpeed false
par myHospitalNetwork.node[6].veinsmobility accidentCount 0
par myHospitalNetwork.node[6].veinsmobility accidentStart 47.5188s
attr unit s
par myHospitalNetwork.node[6].veinsmobility accidentDuration "uniform(30s, 60s)"
attr unit s
par myHospitalNetwork.node[6].veinsmobility accidentInterval "uniform(30s, 60s)"
attr unit s
scalar myHospitalNetwork.node[6].veinsmobility startTime 5.1
scalar myHospitalNetwork.node[6].veinsmobility totalTime 6.6
scalar myHospitalNetwork.node[6].veinsmobility stopTime 11.704197526706
scalar myHospitalNetwork.node[6].veinsmobility minSpeed 0
scalar myHospitalNetwork.node[6].veinsmobility maxSpeed 4.3316
scalar myHospitalNetwork.node[6].veinsmobility totalDistance 16.454
scalar myHospitalNetwork.node[6].veinsmobility totalCO2Emission 9.6766089794996
par myHospitalNetwork.node[6] typename "\"org.car2x.veins.nodes.Car\""
par myHospitalNetwork.node[6] applType "\"AGVControlApp\""
par myHospitalNetwork.node[6] nicType "\"Nic80211p\""
par myHospitalNetwork.node[6] veinsmobilityType "\"org.car2x.veins.modules.mobility.traci.TraCIMobility\""
par myHospitalNetwork.node[7].appl typename "\"lab001.veins_inet.AGVControlApp\""
par myHospitalNetwork.node[7].appl headerLength 80bit
attr unit bit
par myHospitalNetwork.node[7].appl sendBeacons false
par myHospitalNetwork.node[7].appl beaconLengthBits 256bit
attr unit bit
par myHospitalNetwork.node[7].appl beaconUserPriority 7
par myHospitalNetwork.node[7].appl beaconInterval 0.1s
attr unit s
par myHospitalNetwork.node[7].appl dataLengthBits 1024bit
attr unit bit
par myHospitalNetwork.node[7].appl dataOnSch true
par myHospitalNetwork.node[7].appl dataUserPriority 7
par myHospitalNetwork.node[7].appl avoidBeaconSynchronization true
par myHospitalNetwork.node[7].appl sendWSA false
par myHospitalNetwork.node[7].appl wsaLengthBits 250bit
attr unit bit
par myHospitalNetwork.node[7].appl wsaInterval 1s
attr unit s
par myHospitalNetwork.node[7].appl appName "\"My first Veins App!\""
scalar myHospitalNetwork.node[7].appl generatedWSMs 0
scalar myHospitalNetwork.node[7].appl receivedWSMs 0
scalar myHospitalNetwork.node[7].appl generatedBSMs 56
scalar myHospitalNetwork.node[7].appl receivedBSMs 0
scalar myHospitalNetwork.node[7].appl generatedWSAs 0
scalar myHospitalNetwork.node[7].appl receivedWSAs 0
par myHospitalNetwork.node[7].nic.phy80211p typename "\"org.car2x.veins.modules.phy.PhyLayer80211p\""
par myHospitalNetwork.node[7].nic.phy80211p recordStats false
par myHospitalNetwork.node[7].nic.phy80211p usePropagationDelay true
par myHospitalNetwork.node[7].nic.phy80211p noiseFloor -98dBm
attr unit dBm
par myHospitalNetwork.node[7].nic.phy80211p useNoiseFloor true
par myHospitalNetwork.node[7].nic.phy80211p antenna "<Antenna type=\"SampledAntenna1D\" id=\"monopole\">...</Antenna> at /home/dung/omnetpp-6.0.1/workspace/lab001/simulations/eh//antenna.xml:35"
par myHospitalNetwork.node[7].nic.phy80211p antennaOffsetX 0m
attr unit m
par myHospitalNetwork.node[7].nic.phy80211p antennaOffsetY 0m
attr unit m
par myHospitalNetwork.node[7].nic.phy80211p antennaOffsetZ 1.895m
attr unit m
par myHospitalNetwork.node[7].nic.phy80211p antennaOffsetYaw 0rad
attr unit rad
par myHospitalNetwork.node[7].nic.phy80211p analogueModels "<root>...</root> at /home/dung/omnetpp-6.0.1/workspace/lab001/simulations/eh//config.xml:34"
par myHospitalNetwork.node[7].nic.phy80211p decider "<root>...</root> at /home/dung/omnetpp-6.0.1/workspace/lab001/simulations/eh//config.xml:34"
par myHospitalNetwork.node[7].nic.phy80211p minPowerLevel -110dBm
attr unit dBm
par myHospitalNetwork.node[7].nic.phy80211p timeRXToTX 0s
attr unit s
par myHospitalNetwork.node[7].nic.phy80211p timeRXToSleep 0s
attr unit s
par myHospitalNetwork.node[7].nic.phy80211p timeTXToRX 0s
attr unit s
par myHospitalNetwork.node[7].nic.phy80211p timeTXToSleep 0s
attr unit s
par myHospitalNetwork.node[7].nic.phy80211p timeSleepToRX 0s
attr unit s
par myHospitalNetwork.node[7].nic.phy80211p timeSleepToTX 0s
attr unit s
par myHospitalNetwork.node[7].nic.phy80211p initialRadioState 0
par myHospitalNetwork.node[7].nic.phy80211p radioMinAtt 1
par myHospitalNetwork.node[7].nic.phy80211p radioMaxAtt 0
par myHospitalNetwork.node[7].nic.phy80211p nbRadioChannels 1
par myHospitalNetwork.node[7].nic.phy80211p initialRadioChannel 0
par myHospitalNetwork.node[7].nic.phy80211p ccaThreshold -65dBm
attr unit dBm
par myHospitalNetwork.node[7].nic.phy80211p collectCollisionStatistics false
par myHospitalNetwork.node[7].nic.phy80211p allowTxDuringRx false
scalar myHospitalNetwork.node[7].nic.phy80211p busyTime 0.035149367783934
par myHospitalNetwork.node[7].nic.mac1609_4 typename "\"org.car2x.veins.modules.mac.ieee80211p.Mac1609_4\""
par myHospitalNetwork.node[7].nic.mac1609_4 notAffectedByHostState false
par myHospitalNetwork.node[7].nic.mac1609_4 headerLength 0bit
attr unit bit
par myHospitalNetwork.node[7].nic.mac1609_4 address "\"auto\""
par myHospitalNetwork.node[7].nic.mac1609_4 useServiceChannel true
par myHospitalNetwork.node[7].nic.mac1609_4 serviceChannel 1
par myHospitalNetwork.node[7].nic.mac1609_4 bitrate 6000000bps
attr unit bps
par myHospitalNetwork.node[7].nic.mac1609_4 syncOffset 0.0003s
attr unit s
par myHospitalNetwork.node[7].nic.mac1609_4 txPower 20mW
attr unit mW
par myHospitalNetwork.node[7].nic.mac1609_4 queueSize 0
par myHospitalNetwork.node[7].nic.mac1609_4 dot11RTSThreshold 12000bit
attr unit bit
par myHospitalNetwork.node[7].nic.mac1609_4 dot11ShortRetryLimit 7
par myHospitalNetwork.node[7].nic.mac1609_4 dot11LongRetryLimit 4
par myHospitalNetwork.node[7].nic.mac1609_4 ackLength 112bit
attr unit bit
par myHospitalNetwork.node[7].nic.mac1609_4 useAcks false
par myHospitalNetwork.node[7].nic.mac1609_4 frameErrorRate 0
par myHospitalNetwork.node[7].nic.mac1609_4 ackErrorRate 0
scalar myHospitalNetwork.node[7].nic.mac1609_4 ReceivedUnicastPackets 0
scalar myHospitalNetwork.node[7].nic.mac1609_4 ReceivedBroadcasts 516
scalar myHospitalNetwork.node[7].nic.mac1609_4 SentPackets 110
scalar myHospitalNetwork.node[7].nic.mac1609_4 SentAcknowledgements 0
scalar myHospitalNetwork.node[7].nic.mac1609_4 RetriesExceeded 0
scalar myHospitalNetwork.node[7].nic.mac1609_4 SNIRLostPackets 571
scalar myHospitalNetwork.node[7].nic.mac1609_4 RXTXLostPackets 237
scalar myHospitalNetwork.node[7].nic.mac1609_4 TotalLostPackets 808
scalar myHospitalNetwork.node[7].nic.mac1609_4 DroppedPacketsInMac 0
scalar myHospitalNetwork.node[7].nic.mac1609_4 TooLittleTime 55
scalar myHospitalNetwork.node[7].nic.mac1609_4 TimesIntoBackoff 235
scalar myHospitalNetwork.node[7].nic.mac1609_4 SlotsBackoff 138
scalar myHospitalNetwork.node[7].nic.mac1609_4 NumInternalContention 0
scalar myHospitalNetwork.node[7].nic.mac1609_4 totalBusyTime 0.133595539325
scalar myHospitalNetwork.node[7].nic.mac1609_4 retriesExceeded:count 0
attr recordingmode count
attr source org_car2x_veins_modules_mac_sigRetriesExceeded
scalar myHospitalNetwork.node[7].nic.mac1609_4 sentAcks:count 0
attr recordingmode count
attr source org_car2x_veins_modules_mac_sigSentAck
scalar myHospitalNetwork.node[7].nic.mac1609_4 sentPackets:count 110
attr recordingmode count
attr source org_car2x_veins_modules_mac_sigSentPacket
scalar myHospitalNetwork.node[7].nic.mac1609_4 collisions:count 0
attr recordingmode count
attr source org_car2x_veins_modules_mac_sigCollision
scalar myHospitalNetwork.node[7].nic.mac1609_4 channelBusy:timeavg 0.023838477978046
attr recordingmode timeavg
attr source org_car2x_veins_modules_mac_sigChannelBusy
par myHospitalNetwork.node[7].nic typename "\"org.car2x.veins.modules.nic.Nic80211p\""
par myHospitalNetwork.node[7].nic connectionManagerName "\"connectionManager\""
par myHospitalNetwork.node[7].veinsmobility typename "\"org.car2x.veins.modules.mobility.traci.TraCIMobility\""
par myHospitalNetwork.node[7].veinsmobility notAffectedByHostState true
par myHospitalNetwork.node[7].veinsmobility x 0
par myHospitalNetwork.node[7].veinsmobility y 0
par myHospitalNetwork.node[7].veinsmobility z 0
par myHospitalNetwork.node[7].veinsmobility xOrientation 1
par myHospitalNetwork.node[7].veinsmobility yOrientation 0
par myHospitalNetwork.node[7].veinsmobility zOrientation 0
par myHospitalNetwork.node[7].veinsmobility hostPositionOffset 0m
attr unit m
par myHospitalNetwork.node[7].veinsmobility setHostSpeed false
par myHospitalNetwork.node[7].veinsmobility accidentCount 0
par myHospitalNetwork.node[7].veinsmobility accidentStart 42.9513s
attr unit s
par myHospitalNetwork.node[7].veinsmobility accidentDuration "uniform(30s, 60s)"
attr unit s
par myHospitalNetwork.node[7].veinsmobility accidentInterval "uniform(30s, 60s)"
attr unit s
scalar myHospitalNetwork.node[7].veinsmobility startTime 6.1
scalar myHospitalNetwork.node[7].veinsmobility totalTime 5.6
scalar myHospitalNetwork.node[7].veinsmobility stopTime 11.704197526706
scalar myHospitalNetwork.node[7].veinsmobility minSpeed 0.027704363911802
scalar myHospitalNetwork.node[7].veinsmobility maxSpeed 3.4025235900648
scalar myHospitalNetwork.node[7].veinsmobility totalDistance 4.6577416564862
scalar myHospitalNetwork.node[7].veinsmobility totalCO2Emission 6.7596483347148
par myHospitalNetwork.node[7] typename "\"org.car2x.veins.nodes.Car\""
par myHospitalNetwork.node[7] applType "\"AGVControlApp\""
par myHospitalNetwork.node[7] nicType "\"Nic80211p\""
par myHospitalNetwork.node[7] veinsmobilityType "\"org.car2x.veins.modules.mobility.traci.TraCIMobility\""
par myHospitalNetwork.node[8].appl typename "\"lab001.veins_inet.AGVControlApp\""
par myHospitalNetwork.node[8].appl headerLength 80bit
attr unit bit
par myHospitalNetwork.node[8].appl sendBeacons false
par myHospitalNetwork.node[8].appl beaconLengthBits 256bit
attr unit bit
par myHospitalNetwork.node[8].appl beaconUserPriority 7
par myHospitalNetwork.node[8].appl beaconInterval 0.1s
attr unit s
par myHospitalNetwork.node[8].appl dataLengthBits 1024bit
attr unit bit
par myHospitalNetwork.node[8].appl dataOnSch true
par myHospitalNetwork.node[8].appl dataUserPriority 7
par myHospitalNetwork.node[8].appl avoidBeaconSynchronization true
par myHospitalNetwork.node[8].appl sendWSA false
par myHospitalNetwork.node[8].appl wsaLengthBits 250bit
attr unit bit
par myHospitalNetwork.node[8].appl wsaInterval 1s
attr unit s
par myHospitalNetwork.node[8].appl appName "\"My first Veins App!\""
scalar myHospitalNetwork.node[8].appl generatedWSMs 0
scalar myHospitalNetwork.node[8].appl receivedWSMs 0
scalar myHospitalNetwork.node[8].appl generatedBSMs 46
scalar myHospitalNetwork.node[8].appl receivedBSMs 0
scalar myHospitalNetwork.node[8].appl generatedWSAs 0
scalar myHospitalNetwork.node[8].appl receivedWSAs 0
par myHospitalNetwork.node[8].nic.phy80211p typename "\"org.car2x.veins.modules.phy.PhyLayer80211p\""
par myHospitalNetwork.node[8].nic.phy80211p recordStats false
par myHospitalNetwork.node[8].nic.phy80211p usePropagationDelay true
par myHospitalNetwork.node[8].nic.phy80211p noiseFloor -98dBm
attr unit dBm
par myHospitalNetwork.node[8].nic.phy80211p useNoiseFloor true
par myHospitalNetwork.node[8].nic.phy80211p antenna "<Antenna type=\"SampledAntenna1D\" id=\"monopole\">...</Antenna> at /home/dung/omnetpp-6.0.1/workspace/lab001/simulations/eh//antenna.xml:35"
par myHospitalNetwork.node[8].nic.phy80211p antennaOffsetX 0m
attr unit m
par myHospitalNetwork.node[8].nic.phy80211p antennaOffsetY 0m
attr unit m
par myHospitalNetwork.node[8].nic.phy80211p antennaOffsetZ 1.895m
attr unit m
par myHospitalNetwork.node[8].nic.phy80211p antennaOffsetYaw 0rad
attr unit rad
par myHospitalNetwork.node[8].nic.phy80211p analogueModels "<root>...</root> at /home/dung/omnetpp-6.0.1/workspace/lab001/simulations/eh//config.xml:34"
par myHospitalNetwork.node[8].nic.phy80211p decider "<root>...</root> at /home/dung/omnetpp-6.0.1/workspace/lab001/simulations/eh//config.xml:34"
par myHospitalNetwork.node[8].nic.phy80211p minPowerLevel -110dBm
attr unit dBm
par myHospitalNetwork.node[8].nic.phy80211p timeRXToTX 0s
attr unit s
par myHospitalNetwork.node[8].nic.phy80211p timeRXToSleep 0s
attr unit s
par myHospitalNetwork.node[8].nic.phy80211p timeTXToRX 0s
attr unit s
par myHospitalNetwork.node[8].nic.phy80211p timeTXToSleep 0s
attr unit s
par myHospitalNetwork.node[8].nic.phy80211p timeSleepToRX 0s
attr unit s
par myHospitalNetwork.node[8].nic.phy80211p timeSleepToTX 0s
attr unit s
par myHospitalNetwork.node[8].nic.phy80211p initialRadioState 0
par myHospitalNetwork.node[8].nic.phy80211p radioMinAtt 1
par myHospitalNetwork.node[8].nic.phy80211p radioMaxAtt 0
par myHospitalNetwork.node[8].nic.phy80211p nbRadioChannels 1
par myHospitalNetwork.node[8].nic.phy80211p initialRadioChannel 0
par myHospitalNetwork.node[8].nic.phy80211p ccaThreshold -65dBm
attr unit dBm
par myHospitalNetwork.node[8].nic.phy80211p collectCollisionStatistics false
par myHospitalNetwork.node[8].nic.phy80211p allowTxDuringRx false
scalar myHospitalNetwork.node[8].nic.phy80211p busyTime 0.036929779622563
par myHospitalNetwork.node[8].nic.mac1609_4 typename "\"org.car2x.veins.modules.mac.ieee80211p.Mac1609_4\""
par myHospitalNetwork.node[8].nic.mac1609_4 notAffectedByHostState false
par myHospitalNetwork.node[8].nic.mac1609_4 headerLength 0bit
attr unit bit
par myHospitalNetwork.node[8].nic.mac1609_4 address "\"auto\""
par myHospitalNetwork.node[8].nic.mac1609_4 useServiceChannel true
par myHospitalNetwork.node[8].nic.mac1609_4 serviceChannel 1
par myHospitalNetwork.node[8].nic.mac1609_4 bitrate 6000000bps
attr unit bps
par myHospitalNetwork.node[8].nic.mac1609_4 syncOffset 0.0003s
attr unit s
par myHospitalNetwork.node[8].nic.mac1609_4 txPower 20mW
attr unit mW
par myHospitalNetwork.node[8].nic.mac1609_4 queueSize 0
par myHospitalNetwork.node[8].nic.mac1609_4 dot11RTSThreshold 12000bit
attr unit bit
par myHospitalNetwork.node[8].nic.mac1609_4 dot11ShortRetryLimit 7
par myHospitalNetwork.node[8].nic.mac1609_4 dot11LongRetryLimit 4
par myHospitalNetwork.node[8].nic.mac1609_4 ackLength 112bit
attr unit bit
par myHospitalNetwork.node[8].nic.mac1609_4 useAcks false
par myHospitalNetwork.node[8].nic.mac1609_4 frameErrorRate 0
par myHospitalNetwork.node[8].nic.mac1609_4 ackErrorRate 0
scalar myHospitalNetwork.node[8].nic.mac1609_4 ReceivedUnicastPackets 0
scalar myHospitalNetwork.node[8].nic.mac1609_4 ReceivedBroadcasts 393
scalar myHospitalNetwork.node[8].nic.mac1609_4 SentPackets 90
scalar myHospitalNetwork.node[8].nic.mac1609_4 SentAcknowledgements 0
scalar myHospitalNetwork.node[8].nic.mac1609_4 RetriesExceeded 0
scalar myHospitalNetwork.node[8].nic.mac1609_4 SNIRLostPackets 558
scalar myHospitalNetwork.node[8].nic.mac1609_4 RXTXLostPackets 185
scalar myHospitalNetwork.node[8].nic.mac1609_4 TotalLostPackets 743
scalar myHospitalNetwork.node[8].nic.mac1609_4 DroppedPacketsInMac 0
scalar myHospitalNetwork.node[8].nic.mac1609_4 TooLittleTime 45
scalar myHospitalNetwork.node[8].nic.mac1609_4 TimesIntoBackoff 181
scalar myHospitalNetwork.node[8].nic.mac1609_4 SlotsBackoff 139
scalar myHospitalNetwork.node[8].nic.mac1609_4 NumInternalContention 0
scalar myHospitalNetwork.node[8].nic.mac1609_4 totalBusyTime 0.103802441121
scalar myHospitalNetwork.node[8].nic.mac1609_4 retriesExceeded:count 0
attr recordingmode count
attr source org_car2x_veins_modules_mac_sigRetriesExceeded
scalar myHospitalNetwork.node[8].nic.mac1609_4 sentAcks:count 0
attr recordingmode count
attr source org_car2x_veins_modules_mac_sigSentAck
scalar myHospitalNetwork.node[8].nic.mac1609_4 sentPackets:count 90
attr recordingmode count
attr source org_car2x_veins_modules_mac_sigSentPacket
scalar myHospitalNetwork.node[8].nic.mac1609_4 collisions:count 0
attr recordingmode count
attr source org_car2x_veins_modules_mac_sigCollision
scalar myHospitalNetwork.node[8].nic.mac1609_4 channelBusy:timeavg 0.02254517546628
attr recordingmode timeavg
attr source org_car2x_veins_modules_mac_sigChannelBusy
par myHospitalNetwork.node[8].nic typename "\"org.car2x.veins.modules.nic.Nic80211p\""
par myHospitalNetwork.node[8].nic connectionManagerName "\"connectionManager\""
par myHospitalNetwork.node[8].veinsmobility typename "\"org.car2x.veins.modules.mobility.traci.TraCIMobility\""
par myHospitalNetwork.node[8].veinsmobility notAffectedByHostState true
par myHospitalNetwork.node[8].veinsmobility x 0
par myHospitalNetwork.node[8].veinsmobility y 0
par myHospitalNetwork.node[8].veinsmobility z 0
par myHospitalNetwork.node[8].veinsmobility xOrientation 1
par myHospitalNetwork.node[8].veinsmobility yOrientation 0
par myHospitalNetwork.node[8].veinsmobility zOrientation 0
par myHospitalNetwork.node[8].veinsmobility hostPositionOffset 0m
attr unit m
par myHospitalNetwork.node[8].veinsmobility setHostSpeed false
par myHospitalNetwork.node[8].veinsmobility accidentCount 0
par myHospitalNetwork.node[8].veinsmobility accidentStart 47.2914s
attr unit s
[...]
attr unit mW
par myHospitalNetwork.node[12].nic.mac1609_4 queueSize 0
par myHospitalNetwork.node[12].nic.mac1609_4 dot11RTSThreshold 12000bit
attr unit bit
par myHospitalNetwork.node[12].nic.mac1609_4 dot11ShortRetryLimit 7
par myHospitalNetwork.node[12].nic.mac1609_4 dot11LongRetryLimit 4
par myHospitalNetwork.node[12].nic.mac1609_4 ackLength 112bit
attr unit bit
par myHospitalNetwork.node[12].nic.mac1609_4 useAcks false
par myHospitalNetwork.node[12].nic.mac1609_4 frameErrorRate 0
par myHospitalNetwork.node[12].nic.mac1609_4 ackErrorRate 0
scalar myHospitalNetwork.node[12].nic.mac1609_4 ReceivedUnicastPackets 0
scalar myHospitalNetwork.node[12].nic.mac1609_4 ReceivedBroadcasts 156
scalar myHospitalNetwork.node[12].nic.mac1609_4 SentPackets 36
scalar myHospitalNetwork.node[12].nic.mac1609_4 SentAcknowledgements 0
scalar myHospitalNetwork.node[12].nic.mac1609_4 RetriesExceeded 0
scalar myHospitalNetwork.node[12].nic.mac1609_4 SNIRLostPackets 281
scalar myHospitalNetwork.node[12].nic.mac1609_4 RXTXLostPackets 99
scalar myHospitalNetwork.node[12].nic.mac1609_4 TotalLostPackets 380
scalar myHospitalNetwork.node[12].nic.mac1609_4 DroppedPacketsInMac 0
scalar myHospitalNetwork.node[12].nic.mac1609_4 TooLittleTime 1
scalar myHospitalNetwork.node[12].nic.mac1609_4 TimesIntoBackoff 61
scalar myHospitalNetwork.node[12].nic.mac1609_4 SlotsBackoff 54
scalar myHospitalNetwork.node[12].nic.mac1609_4 NumInternalContention 0
scalar myHospitalNetwork.node[12].nic.mac1609_4 totalBusyTime 0.04374916107
scalar myHospitalNetwork.node[12].nic.mac1609_4 retriesExceeded:count 0
attr recordingmode count
attr source org_car2x_veins_modules_mac_sigRetriesExceeded
scalar myHospitalNetwork.node[12].nic.mac1609_4 sentAcks:count 0
attr recordingmode count
attr source org_car2x_veins_modules_mac_sigSentAck
scalar myHospitalNetwork.node[12].nic.mac1609_4 sentPackets:count 36
attr recordingmode count
attr source org_car2x_veins_modules_mac_sigSentPacket
scalar myHospitalNetwork.node[12].nic.mac1609_4 collisions:count 0
attr recordingmode count
attr source org_car2x_veins_modules_mac_sigCollision
scalar myHospitalNetwork.node[12].nic.mac1609_4 channelBusy:timeavg 0.022975117053996
attr recordingmode timeavg
attr source org_car2x_veins_modules_mac_sigChannelBusy
par myHospitalNetwork.node[12].nic typename "\"org.car2x.veins.modules.nic.Nic80211p\""
par myHospitalNetwork.node[12].nic connectionManagerName "\"connectionManager\""
par myHospitalNetwork.node[12].veinsmobility typename "\"org.car2x.veins.modules.mobility.traci.TraCIMobility\""
par myHospitalNetwork.node[12].veinsmobility notAffectedByHostState true
par myHospitalNetwork.node[12].veinsmobility x 0
par myHospitalNetwork.node[12].veinsmobility y 0
par myHospitalNetwork.node[12].veinsmobility z 0
par myHospitalNetwork.node[12].veinsmobility xOrientation 1
par myHospitalNetwork.node[12].veinsmobility yOrientation 0
par myHospitalNetwork.node[12].veinsmobility zOrientation 0
par myHospitalNetwork.node[12].veinsmobility hostPositionOffset 0m
attr unit m
par myHospitalNetwork.node[12].veinsmobility setHostSpeed false
par myHospitalNetwork.node[12].veinsmobility accidentCount 0
par myHospitalNetwork.node[12].veinsmobility accidentStart 33.0655s
attr unit s
par myHospitalNetwork.node[12].veinsmobility accidentDuration "uniform(30s, 60s)"
attr unit s
par myHospitalNetwork.node[12].veinsmobility accidentInterval "uniform(30s, 60s)"
attr unit s
scalar myHospitalNetwork.node[12].veinsmobility startTime 9.8
scalar myHospitalNetwork.node[12].veinsmobility totalTime 1.9
scalar myHospitalNetwork.node[12].veinsmobility stopTime 11.704197526706
scalar myHospitalNetwork.node[12].veinsmobility minSpeed 0.63950377764642
scalar myHospitalNetwork.node[12].veinsmobility maxSpeed 1.5075860821329
scalar myHospitalNetwork.node[12].veinsmobility totalDistance 2.2671016553771
scalar myHospitalNetwork.node[12].veinsmobility totalCO2Emission 2.2249510532018
par myHospitalNetwork.node[12] typename "\"org.car2x.veins.nodes.Car\""
par myHospitalNetwork.node[12] applType "\"AGVControlApp\""
par myHospitalNetwork.node[12] nicType "\"Nic80211p\""
par myHospitalNetwork.node[12] veinsmobilityType "\"org.car2x.veins.modules.mobility.traci.TraCIMobility\""
par myHospitalNetwork.node[13].appl typename "\"lab001.veins_inet.AGVControlApp\""
par myHospitalNetwork.node[13].appl headerLength 80bit
attr unit bit
par myHospitalNetwork.node[13].appl sendBeacons false
par myHospitalNetwork.node[13].appl beaconLengthBits 256bit
attr unit bit
par myHospitalNetwork.node[13].appl beaconUserPriority 7
par myHospitalNetwork.node[13].appl beaconInterval 0.1s
attr unit s
par myHospitalNetwork.node[13].appl dataLengthBits 1024bit
attr unit bit
par myHospitalNetwork.node[13].appl dataOnSch true
par myHospitalNetwork.node[13].appl dataUserPriority 7
par myHospitalNetwork.node[13].appl avoidBeaconSynchronization true
par myHospitalNetwork.node[13].appl sendWSA false
par myHospitalNetwork.node[13].appl wsaLengthBits 250bit
attr unit bit
par myHospitalNetwork.node[13].appl wsaInterval 1s
attr unit s
par myHospitalNetwork.node[13].appl appName "\"My first Veins App!\""
scalar myHospitalNetwork.node[13].appl generatedWSMs 0
scalar myHospitalNetwork.node[13].appl receivedWSMs 0
scalar myHospitalNetwork.node[13].appl generatedBSMs 15
scalar myHospitalNetwork.node[13].appl receivedBSMs 0
scalar myHospitalNetwork.node[13].appl generatedWSAs 0
scalar myHospitalNetwork.node[13].appl receivedWSAs 0
par myHospitalNetwork.node[13].nic.phy80211p typename "\"org.car2x.veins.modules.phy.PhyLayer80211p\""
par myHospitalNetwork.node[13].nic.phy80211p recordStats false
par myHospitalNetwork.node[13].nic.phy80211p usePropagationDelay true
par myHospitalNetwork.node[13].nic.phy80211p noiseFloor -98dBm
attr unit dBm
par myHospitalNetwork.node[13].nic.phy80211p useNoiseFloor true
par myHospitalNetwork.node[13].nic.phy80211p antenna "<Antenna type=\"SampledAntenna1D\" id=\"monopole\">...</Antenna> at /home/dung/omnetpp-6.0.1/workspace/lab001/simulations/eh//antenna.xml:35"
par myHospitalNetwork.node[13].nic.phy80211p antennaOffsetX 0m
attr unit m
par myHospitalNetwork.node[13].nic.phy80211p antennaOffsetY 0m
attr unit m
par myHospitalNetwork.node[13].nic.phy80211p antennaOffsetZ 1.895m
attr unit m
par myHospitalNetwork.node[13].nic.phy80211p antennaOffsetYaw 0rad
attr unit rad
par myHospitalNetwork.node[13].nic.phy80211p analogueModels "<root>...</root> at /home/dung/omnetpp-6.0.1/workspace/lab001/simulations/eh//config.xml:34"
par myHospitalNetwork.node[13].nic.phy80211p decider "<root>...</root> at /home/dung/omnetpp-6.0.1/workspace/lab001/simulations/eh//config.xml:34"
par myHospitalNetwork.node[13].nic.phy80211p minPowerLevel -110dBm
attr unit dBm
par myHospitalNetwork.node[13].nic.phy80211p timeRXToTX 0s
attr unit s
par myHospitalNetwork.node[13].nic.phy80211p timeRXToSleep 0s
attr unit s
par myHospitalNetwork.node[13].nic.phy80211p timeTXToRX 0s
attr unit s
par myHospitalNetwork.node[13].nic.phy80211p timeTXToSleep 0s
attr unit s
par myHospitalNetwork.node[13].nic.phy80211p timeSleepToRX 0s
attr unit s
par myHospitalNetwork.node[13].nic.phy80211p timeSleepToTX 0s
attr unit s
par myHospitalNetwork.node[13].nic.phy80211p initialRadioState 0
par myHospitalNetwork.node[13].nic.phy80211p radioMinAtt 1
par myHospitalNetwork.node[13].nic.phy80211p radioMaxAtt 0
par myHospitalNetwork.node[13].nic.phy80211p nbRadioChannels 1
par myHospitalNetwork.node[13].nic.phy80211p initialRadioChannel 0
par myHospitalNetwork.node[13].nic.phy80211p ccaThreshold -65dBm
attr unit dBm
par myHospitalNetwork.node[13].nic.phy80211p collectCollisionStatistics false
par myHospitalNetwork.node[13].nic.phy80211p allowTxDuringRx false
scalar myHospitalNetwork.node[13].nic.phy80211p busyTime 0.041244583173767
par myHospitalNetwork.node[13].nic.mac1609_4 typename "\"org.car2x.veins.modules.mac.ieee80211p.Mac1609_4\""
par myHospitalNetwork.node[13].nic.mac1609_4 notAffectedByHostState false
par myHospitalNetwork.node[13].nic.mac1609_4 headerLength 0bit
attr unit bit
par myHospitalNetwork.node[13].nic.mac1609_4 address "\"auto\""
par myHospitalNetwork.node[13].nic.mac1609_4 useServiceChannel true
par myHospitalNetwork.node[13].nic.mac1609_4 serviceChannel 1
par myHospitalNetwork.node[13].nic.mac1609_4 bitrate 6000000bps
attr unit bps
par myHospitalNetwork.node[13].nic.mac1609_4 syncOffset 0.0003s
attr unit s
par myHospitalNetwork.node[13].nic.mac1609_4 txPower 20mW
attr unit mW
par myHospitalNetwork.node[13].nic.mac1609_4 queueSize 0
par myHospitalNetwork.node[13].nic.mac1609_4 dot11RTSThreshold 12000bit
attr unit bit
par myHospitalNetwork.node[13].nic.mac1609_4 dot11ShortRetryLimit 7
par myHospitalNetwork.node[13].nic.mac1609_4 dot11LongRetryLimit 4
par myHospitalNetwork.node[13].nic.mac1609_4 ackLength 112bit
attr unit bit
par myHospitalNetwork.node[13].nic.mac1609_4 useAcks false
par myHospitalNetwork.node[13].nic.mac1609_4 frameErrorRate 0
par myHospitalNetwork.node[13].nic.mac1609_4 ackErrorRate 0
scalar myHospitalNetwork.node[13].nic.mac1609_4 ReceivedUnicastPackets 0
scalar myHospitalNetwork.node[13].nic.mac1609_4 ReceivedBroadcasts 106
scalar myHospitalNetwork.node[13].nic.mac1609_4 SentPackets 29
scalar myHospitalNetwork.node[13].nic.mac1609_4 SentAcknowledgements 0
scalar myHospitalNetwork.node[13].nic.mac1609_4 RetriesExceeded 0
scalar myHospitalNetwork.node[13].nic.mac1609_4 SNIRLostPackets 246
scalar myHospitalNetwork.node[13].nic.mac1609_4 RXTXLostPackets 81
scalar myHospitalNetwork.node[13].nic.mac1609_4 TotalLostPackets 327
scalar myHospitalNetwork.node[13].nic.mac1609_4 DroppedPacketsInMac 0
scalar myHospitalNetwork.node[13].nic.mac1609_4 TooLittleTime 0
scalar myHospitalNetwork.node[13].nic.mac1609_4 TimesIntoBackoff 48
scalar myHospitalNetwork.node[13].nic.mac1609_4 SlotsBackoff 45
scalar myHospitalNetwork.node[13].nic.mac1609_4 NumInternalContention 0
scalar myHospitalNetwork.node[13].nic.mac1609_4 totalBusyTime 0.035037014959
scalar myHospitalNetwork.node[13].nic.mac1609_4 retriesExceeded:count 0
attr recordingmode count
attr source org_car2x_veins_modules_mac_sigRetriesExceeded
scalar myHospitalNetwork.node[13].nic.mac1609_4 sentAcks:count 0
attr recordingmode count
attr source org_car2x_veins_modules_mac_sigSentAck
scalar myHospitalNetwork.node[13].nic.mac1609_4 sentPackets:count 29
attr recordingmode count
attr source org_car2x_veins_modules_mac_sigSentPacket
scalar myHospitalNetwork.node[13].nic.mac1609_4 collisions:count 0
attr recordingmode count
attr source org_car2x_veins_modules_mac_sigCollision
scalar myHospitalNetwork.node[13].nic.mac1609_4 channelBusy:timeavg 0.02336076026993
attr recordingmode timeavg
attr source org_car2x_veins_modules_mac_sigChannelBusy
par myHospitalNetwork.node[13].nic typename "\"org.car2x.veins.modules.nic.Nic80211p\""
par myHospitalNetwork.node[13].nic connectionManagerName "\"connectionManager\""
par myHospitalNetwork.node[13].veinsmobility typename "\"org.car2x.veins.modules.mobility.traci.TraCIMobility\""
par myHospitalNetwork.node[13].veinsmobility notAffectedByHostState true
par myHospitalNetwork.node[13].veinsmobility x 0
par myHospitalNetwork.node[13].veinsmobility y 0
par myHospitalNetwork.node[13].veinsmobility z 0
par myHospitalNetwork.node[13].veinsmobility xOrientation 1
par myHospitalNetwork.node[13].veinsmobility yOrientation 0
par myHospitalNetwork.node[13].veinsmobility zOrientation 0
par myHospitalNetwork.node[13].veinsmobility hostPositionOffset 0m
attr unit m
par myHospitalNetwork.node[13].veinsmobility setHostSpeed false
par myHospitalNetwork.node[13].veinsmobility accidentCount 0
par myHospitalNetwork.node[13].veinsmobility accidentStart 39.7111s
attr unit s
par myHospitalNetwork.node[13].veinsmobility accidentDuration "uniform(30s, 60s)"
attr unit s
par myHospitalNetwork.node[13].veinsmobility accidentInterval "uniform(30s, 60s)"
attr unit s
scalar myHospitalNetwork.node[13].veinsmobility startTime 10.2
scalar myHospitalNetwork.node[13].veinsmobility totalTime 1.5
scalar myHospitalNetwork.node[13].veinsmobility stopTime 11.704197526706
scalar myHospitalNetwork.node[13].veinsmobility minSpeed 1.2980393706907
scalar myHospitalNetwork.node[13].veinsmobility maxSpeed 3.1386569531971
scalar myHospitalNetwork.node[13].veinsmobility totalDistance 3.5036819608438
scalar myHospitalNetwork.node[13].veinsmobility totalCO2Emission 2.7406537677173
par myHospitalNetwork.node[13] typename "\"org.car2x.veins.nodes.Car\""
par myHospitalNetwork.node[13] applType "\"AGVControlApp\""
par myHospitalNetwork.node[13] nicType "\"Nic80211p\""
par myHospitalNetwork.node[13] veinsmobilityType "\"org.car2x.veins.modules.mobility.traci.TraCIMobility\""
par myHospitalNetwork.rsu[0].appl typename "\"lab001.veins_inet.HospitalControlApp\""
par myHospitalNetwork.rsu[0].appl headerLength 80bit
attr unit bit
par myHospitalNetwork.rsu[0].appl sendBeacons false
par myHospitalNetwork.rsu[0].appl beaconLengthBits 256bit
attr unit bit
par myHospitalNetwork.rsu[0].appl beaconUserPriority 7
par myHospitalNetwork.rsu[0].appl beaconInterval 1s
attr unit s
par myHospitalNetwork.rsu[0].appl dataLengthBits 1024bit
attr unit bit
par myHospitalNetwork.rsu[0].appl dataOnSch false
par myHospitalNetwork.rsu[0].appl dataUserPriority 7
par myHospitalNetwork.rsu[0].appl avoidBeaconSynchronization true
par myHospitalNetwork.rsu[0].appl sendWSA false
par myHospitalNetwork.rsu[0].appl wsaLengthBits 250bit
attr unit bit
par myHospitalNetwork.rsu[0].appl wsaInterval 1s
attr unit s
scalar myHospitalNetwork.rsu[0].appl generatedWSMs 0
scalar myHospitalNetwork.rsu[0].appl receivedWSMs 304
scalar myHospitalNetwork.rsu[0].appl generatedBSMs 0
scalar myHospitalNetwork.rsu[0].appl receivedBSMs 202
scalar myHospitalNetwork.rsu[0].appl generatedWSAs 0
scalar myHospitalNetwork.rsu[0].appl receivedWSAs 0
par myHospitalNetwork.rsu[0].nic.phy80211p typename "\"org.car2x.veins.modules.phy.PhyLayer80211p\""
par myHospitalNetwork.rsu[0].nic.phy80211p recordStats false
par myHospitalNetwork.rsu[0].nic.phy80211p usePropagationDelay true
par myHospitalNetwork.rsu[0].nic.phy80211p noiseFloor -98dBm
attr unit dBm
par myHospitalNetwork.rsu[0].nic.phy80211p useNoiseFloor true
par myHospitalNetwork.rsu[0].nic.phy80211p antenna "<Antenna type=\"SampledAntenna1D\" id=\"monopole\">...</Antenna> at /home/dung/omnetpp-6.0.1/workspace/lab001/simulations/eh//antenna.xml:35"
par myHospitalNetwork.rsu[0].nic.phy80211p antennaOffsetX 0m
attr unit m
par myHospitalNetwork.rsu[0].nic.phy80211p antennaOffsetY 0m
attr unit m
par myHospitalNetwork.rsu[0].nic.phy80211p antennaOffsetZ 0m
attr unit m
par myHospitalNetwork.rsu[0].nic.phy80211p antennaOffsetYaw 0rad
attr unit rad
par myHospitalNetwork.rsu[0].nic.phy80211p analogueModels "<root>...</root> at /home/dung/omnetpp-6.0.1/workspace/lab001/simulations/eh//config.xml:34"
par myHospitalNetwork.rsu[0].nic.phy80211p decider "<root>...</root> at /home/dung/omnetpp-6.0.1/workspace/lab001/simulations/eh//config.xml:34"
par myHospitalNetwork.rsu[0].nic.phy80211p minPowerLevel -110dBm
attr unit dBm
par myHospitalNetwork.rsu[0].nic.phy80211p timeRXToTX 0s
attr unit s
par myHospitalNetwork.rsu[0].nic.phy80211p timeRXToSleep 0s
attr unit s
par myHospitalNetwork.rsu[0].nic.phy80211p timeTXToRX 0s
attr unit s
par myHospitalNetwork.rsu[0].nic.phy80211p timeTXToSleep 0s
attr unit s
par myHospitalNetwork.rsu[0].nic.phy80211p timeSleepToRX 0s
attr unit s
par myHospitalNetwork.rsu[0].nic.phy80211p timeSleepToTX 0s
attr unit s
par myHospitalNetwork.rsu[0].nic.phy80211p initialRadioState 0
par myHospitalNetwork.rsu[0].nic.phy80211p radioMinAtt 1
par myHospitalNetwork.rsu[0].nic.phy80211p radioMaxAtt 0
par myHospitalNetwork.rsu[0].nic.phy80211p nbRadioChannels 1
par myHospitalNetwork.rsu[0].nic.phy80211p initialRadioChannel 0
par myHospitalNetwork.rsu[0].nic.phy80211p ccaThreshold -65dBm
attr unit dBm
par myHospitalNetwork.rsu[0].nic.phy80211p collectCollisionStatistics false
par myHospitalNetwork.rsu[0].nic.phy80211p allowTxDuringRx false
scalar myHospitalNetwork.rsu[0].nic.phy80211p busyTime 0.021700248942354
par myHospitalNetwork.rsu[0].nic.mac1609_4 typename "\"org.car2x.veins.modules.mac.ieee80211p.Mac1609_4\""
par myHospitalNetwork.rsu[0].nic.mac1609_4 notAffectedByHostState false
par myHospitalNetwork.rsu[0].nic.mac1609_4 headerLength 0bit
attr unit bit
par myHospitalNetwork.rsu[0].nic.mac1609_4 address "\"auto\""
par myHospitalNetwork.rsu[0].nic.mac1609_4 useServiceChannel true
par myHospitalNetwork.rsu[0].nic.mac1609_4 serviceChannel 1
par myHospitalNetwork.rsu[0].nic.mac1609_4 bitrate 6000000bps
attr unit bps
par myHospitalNetwork.rsu[0].nic.mac1609_4 syncOffset 0.0003s
attr unit s
par myHospitalNetwork.rsu[0].nic.mac1609_4 txPower 20mW
attr unit mW
par myHospitalNetwork.rsu[0].nic.mac1609_4 queueSize 0
par myHospitalNetwork.rsu[0].nic.mac1609_4 dot11RTSThreshold 12000bit
attr unit bit
par myHospitalNetwork.rsu[0].nic.mac1609_4 dot11ShortRetryLimit 7
par myHospitalNetwork.rsu[0].nic.mac1609_4 dot11LongRetryLimit 4
par myHospitalNetwork.rsu[0].nic.mac1609_4 ackLength 112bit
attr unit bit
par myHospitalNetwork.rsu[0].nic.mac1609_4 useAcks false
par myHospitalNetwork.rsu[0].nic.mac1609_4 frameErrorRate 0
par myHospitalNetwork.rsu[0].nic.mac1609_4 ackErrorRate 0
scalar myHospitalNetwork.rsu[0].nic.mac1609_4 ReceivedUnicastPackets 0
scalar myHospitalNetwork.rsu[0].nic.mac1609_4 ReceivedBroadcasts 506
scalar myHospitalNetwork.rsu[0].nic.mac1609_4 SentPackets 489
scalar myHospitalNetwork.rsu[0].nic.mac1609_4 SentAcknowledgements 0
scalar myHospitalNetwork.rsu[0].nic.mac1609_4 RetriesExceeded 0
scalar myHospitalNetwork.rsu[0].nic.mac1609_4 SNIRLostPackets 873
scalar myHospitalNetwork.rsu[0].nic.mac1609_4 RXTXLostPackets 346
scalar myHospitalNetwork.rsu[0].nic.mac1609_4 TotalLostPackets 1219
scalar myHospitalNetwork.rsu[0].nic.mac1609_4 DroppedPacketsInMac 0
scalar myHospitalNetwork.rsu[0].nic.mac1609_4 TooLittleTime 0
scalar myHospitalNetwork.rsu[0].nic.mac1609_4 TimesIntoBackoff 605
scalar myHospitalNetwork.rsu[0].nic.mac1609_4 SlotsBackoff 727
scalar myHospitalNetwork.rsu[0].nic.mac1609_4 NumInternalContention 0
scalar myHospitalNetwork.rsu[0].nic.mac1609_4 totalBusyTime 0.260462673792
scalar myHospitalNetwork.rsu[0].nic.mac1609_4 retriesExceeded:count 0
attr recordingmode count
attr source org_car2x_veins_modules_mac_sigRetriesExceeded
scalar myHospitalNetwork.rsu[0].nic.mac1609_4 sentAcks:count 0
attr recordingmode count
attr source org_car2x_veins_modules_mac_sigSentAck
scalar myHospitalNetwork.rsu[0].nic.mac1609_4 sentPackets:count 489
attr recordingmode count
attr source org_car2x_veins_modules_mac_sigSentPacket
scalar myHospitalNetwork.rsu[0].nic.mac1609_4 collisions:count 0
attr recordingmode count
attr source org_car2x_veins_modules_mac_sigCollision
scalar myHospitalNetwork.rsu[0].nic.mac1609_4 channelBusy:timeavg 0.022044559424111
attr recordingmode timeavg
attr source org_car2x_veins_modules_mac_sigChannelBusy
par myHospitalNetwork.rsu[0].nic typename "\"org.car2x.veins.modules.nic.Nic80211p\""
par myHospitalNetwork.rsu[0].nic connectionManagerName "\"connectionManager\""
par myHospitalNetwork.rsu[0].mobility typename "\"org.car2x.veins.base.modules.BaseMobility\""
par myHospitalNetwork.rsu[0].mobility notAffectedByHostState true
par myHospitalNetwork.rsu[0].mobility x 300
par myHospitalNetwork.rsu[0].mobility y 300
par myHospitalNetwork.rsu[0].mobility z 3
par myHospitalNetwork.rsu[0].mobility xOrientation 1
par myHospitalNetwork.rsu[0].mobility yOrientation 0
par myHospitalNetwork.rsu[0].mobility zOrientation 0
par myHospitalNetwork.rsu[0] typename "\"org.car2x.veins.nodes.RSU\""
par myHospitalNetwork.rsu[0] applType "\"HospitalControlApp\""
par myHospitalNetwork.rsu[0] nicType "\"Nic80211p\""
par myHospitalNetwork typename "\"lab001.simulations.eh.myHospitalNetwork\""
par myHospitalNetwork playgroundSizeX 2500m
attr unit m
par myHospitalNetwork playgroundSizeY 2500m
attr unit m
par myHospitalNetwork playgroundSizeZ 50m
attr unit m

