version 3
run General-0-20230630-22:59:42-18952
attr configname General
attr datetime 20230630-22:59:42
attr datetimef 20230630-225942
attr experiment General
attr inifile omnetpp.ini
attr iterationvars ""
attr iterationvarsd ""
attr iterationvarsf ""
attr measurement ""
attr network myHospitalNetwork
attr processid 18952
attr repetition 0
attr replication #0
attr resultdir results
attr runnumber 0
attr seedset 0
config image-path ../../../../../Documents/inet/images:../../../../../Documents/veins/images
config cmdenv-express-mode true
config cmdenv-autoflush true
config cmdenv-status-frequency 0.1s
config **.cmdenv-log-level info
config ned-path .
config image-path ../../images
config network myHospitalNetwork
config debug-on-errors true
config print-undisposed false
config sim-time-limit 3600s
config **.scalar-recording true
config **.vector-recording true
config *.playgroundSizeX 2500m
config *.playgroundSizeY 2500m
config *.playgroundSizeZ 50m
config *.annotations.draw true
config *.manager.updateInterval 0.1s
config *.manager.host "\"localhost\""
config *.manager.port 9999
config *.manager.autoShutdown true
config *.manager.launchConfig "xmldoc(\"vd013.launchd.xml\")"
config *.manager.moduleType "\"agv=org.car2x.veins.nodes.Car pedestrian=lab001.veins_inet.IPerson\""
config *.manager.moduleName "\"agv=node pedestrian=personNode\""
config *.manager.moduleDisplayString "\"agv='i=veins/node/car;is=vs' pedestrian='i=veins/node/pedestrian;is=vs'\""
config *.rsu[0].mobility.x 300
config *.rsu[0].mobility.y 300
config *.rsu[0].mobility.z 3
config *.rsu[*].applType "\"HospitalControlApp\""
config *.rsu[*].appl.headerLength "80 bit"
config *.rsu[*].appl.sendBeacons false
config *.rsu[*].appl.dataOnSch false
config *.rsu[*].nic.phy80211p.antennaOffsetZ "0 m"
config *.connectionManager.sendDirect true
config *.connectionManager.maxInterfDist 2600m
config *.connectionManager.drawMaxIntfDist false
config *.**.nic.mac1609_4.useServiceChannel true
config *.**.nic.mac1609_4.txPower 20mW
config *.**.nic.mac1609_4.bitrate 6Mbps
config *.**.nic.phy80211p.minPowerLevel -110dBm
config *.**.nic.phy80211p.useNoiseFloor true
config *.**.nic.phy80211p.noiseFloor -98dBm
config *.**.nic.phy80211p.decider "xmldoc(\"config.xml\")"
config *.**.nic.phy80211p.analogueModels "xmldoc(\"config.xml\")"
config *.**.nic.phy80211p.usePropagationDelay true
config *.**.nic.phy80211p.antenna "xmldoc(\"antenna.xml\", \"/root/Antenna[@id='monopole']\")"
config *.node[*].nic.phy80211p.antennaOffsetY "0 m"
config *.node[*].nic.phy80211p.antennaOffsetZ "1.895 m"
config *.node[*].applType "\"AGVControlApp\""
config *.node[*].appl.headerLength "80 bit"
config *.node[*].appl.sendBeacons false
config *.node[*].appl.dataOnSch true
config *.node[*].appl.beaconInterval 0.1s
config *.node[*].veinsmobility.x 0
config *.node[*].veinsmobility.y 0
config *.node[*].veinsmobility.z 0
config *.node[*].veinsmobility.setHostSpeed false
config *.node[*0].veinsmobility.accidentCount 0

vector 0 myHospitalNetwork.node[0].veinsmobility posx ETV
vector 1 myHospitalNetwork.node[0].veinsmobility posy ETV
vector 2 myHospitalNetwork.node[0].veinsmobility speed ETV
vector 3 myHospitalNetwork.node[0].veinsmobility acceleration ETV
vector 4 myHospitalNetwork.node[0].veinsmobility co2emission ETV
vector 5 myHospitalNetwork.node[1].veinsmobility posx ETV
vector 6 myHospitalNetwork.node[1].veinsmobility posy ETV
vector 7 myHospitalNetwork.node[1].veinsmobility speed ETV
vector 8 myHospitalNetwork.node[1].veinsmobility acceleration ETV
vector 9 myHospitalNetwork.node[1].veinsmobility co2emission ETV
vector 10 myHospitalNetwork.node[2].veinsmobility posx ETV
vector 11 myHospitalNetwork.node[2].veinsmobility posy ETV
vector 12 myHospitalNetwork.node[3].veinsmobility posx ETV
vector 13 myHospitalNetwork.node[3].veinsmobility posy ETV
vector 14 myHospitalNetwork.node[2].veinsmobility speed ETV
vector 15 myHospitalNetwork.node[3].veinsmobility speed ETV
vector 16 myHospitalNetwork.node[2].veinsmobility acceleration ETV
vector 17 myHospitalNetwork.node[2].veinsmobility co2emission ETV
vector 18 myHospitalNetwork.node[3].veinsmobility acceleration ETV
vector 19 myHospitalNetwork.node[3].veinsmobility co2emission ETV
vector 20 myHospitalNetwork.node[4].veinsmobility posx ETV
vector 21 myHospitalNetwork.node[4].veinsmobility posy ETV
vector 22 myHospitalNetwork.node[4].veinsmobility speed ETV
vector 23 myHospitalNetwork.node[4].veinsmobility acceleration ETV
vector 24 myHospitalNetwork.node[4].veinsmobility co2emission ETV
vector 25 myHospitalNetwork.node[5].veinsmobility posx ETV
vector 26 myHospitalNetwork.node[5].veinsmobility posy ETV
vector 27 myHospitalNetwork.node[5].veinsmobility speed ETV
vector 28 myHospitalNetwork.node[5].veinsmobility acceleration ETV
vector 29 myHospitalNetwork.node[5].veinsmobility co2emission ETV
vector 30 myHospitalNetwork.node[6].veinsmobility posx ETV
vector 31 myHospitalNetwork.node[6].veinsmobility posy ETV
vector 32 myHospitalNetwork.node[6].veinsmobility speed ETV
vector 33 myHospitalNetwork.node[6].veinsmobility acceleration ETV
vector 34 myHospitalNetwork.node[6].veinsmobility co2emission ETV
vector 35 myHospitalNetwork.node[7].veinsmobility posx ETV
vector 36 myHospitalNetwork.node[7].veinsmobility posy ETV
vector 37 myHospitalNetwork.node[7].veinsmobility speed ETV
vector 38 myHospitalNetwork.node[7].veinsmobility acceleration ETV
vector 39 myHospitalNetwork.node[7].veinsmobility co2emission ETV
vector 40 myHospitalNetwork.node[8].veinsmobility posx ETV
vector 41 myHospitalNetwork.node[8].veinsmobility posy ETV
vector 42 myHospitalNetwork.node[8].veinsmobility speed ETV
vector 43 myHospitalNetwork.node[8].veinsmobility acceleration ETV
vector 44 myHospitalNetwork.node[8].veinsmobility co2emission ETV
vector 45 myHospitalNetwork.node[9].veinsmobility posx ETV
vector 46 myHospitalNetwork.node[9].veinsmobility posy ETV
vector 47 myHospitalNetwork.node[10].veinsmobility posx ETV
vector 48 myHospitalNetwork.node[10].veinsmobility posy ETV
vector 49 myHospitalNetwork.node[9].veinsmobility speed ETV
vector 50 myHospitalNetwork.node[10].veinsmobility speed ETV
vector 51 myHospitalNetwork.node[9].veinsmobility acceleration ETV
vector 52 myHospitalNetwork.node[9].veinsmobility co2emission ETV
vector 53 myHospitalNetwork.node[10].veinsmobility acceleration ETV
vector 54 myHospitalNetwork.node[10].veinsmobility co2emission ETV
vector 55 myHospitalNetwork.node[11].veinsmobility posx ETV
vector 56 myHospitalNetwork.node[11].veinsmobility posy ETV
vector 57 myHospitalNetwork.node[11].veinsmobility speed ETV
vector 58 myHospitalNetwork.node[11].veinsmobility acceleration ETV
vector 59 myHospitalNetwork.node[11].veinsmobility co2emission ETV
vector 60 myHospitalNetwork.node[12].veinsmobility posx ETV
vector 61 myHospitalNetwork.node[12].veinsmobility posy ETV
vector 62 myHospitalNetwork.node[12].veinsmobility speed ETV
vector 63 myHospitalNetwork.node[12].veinsmobility acceleration ETV
vector 64 myHospitalNetwork.node[12].veinsmobility co2emission ETV
vector 65 myHospitalNetwork.node[13].veinsmobility posx ETV
vector 66 myHospitalNetwork.node[13].veinsmobility posy ETV
vector 67 myHospitalNetwork.node[13].veinsmobility speed ETV
vector 68 myHospitalNetwork.node[13].veinsmobility acceleration ETV
vector 69 myHospitalNetwork.node[13].veinsmobility co2emission ETV
0	3	0.1	26.245
0	8	0.2	26.39
0	70	0.3	26.635
0	132	0.4	26.979512
0	194	0.5	27.364632
0	256	0.6	27.749752
0	314	0.7	28.134872
0	376	0.8	28.519992
0	434	0.9	28.905112
0	496	1	29.290232
0	558	1.1	29.675352
0	639	1.2	30.060472
0	771	1.3	30.445592
0	934	1.4	30.830712
0	1104	1.5	31.215832
0	1274	1.6	31.600952
0	1444	1.7	31.986072
0	1614	1.8	32.371192
0	1784	1.9	32.756312
0	1954	2	33.141432
0	2124	2.1	33.526552
0	2377	2.2	33.911672
0	2755	2.3	34.296792
0	3125	2.4	34.681912
0	3590	2.5	35.067032
0	4051	2.6	35.452152
0	4534	2.7	35.837272
0	5014	2.8	36.222392
0	5499	2.9	36.607512
0	5941	3	36.992632
0	6295	3.1	37.377752
0	6840	3.2	37.762872
0	7315	3.3	38.147992
0	8043	3.4	38.533112
0	8628	3.5	38.918232
0	9224	3.6	39.303352
0	9789	3.7	39.688472
0	10495	3.8	40.073592
0	11170	3.9	40.458712
0	11712	4	40.843832
0	12280	4.1	41.228952
0	13102	4.2	41.614072
0	13979	4.3	41.999192
0	14797	4.4	42.384312
0	15467	4.5	42.769432
0	16235	4.6	43.151043525898
0	17237	4.7	43.532352565739
0	18181	4.8	43.913661605581
0	19089	4.9	44.294970645422
0	19711	5	44.676279685263
0	20439	5.1	45.057588725105
0	21192	5.2	45.438897764946
0	21936	5.3	45.820206804787
0	22713	5.4	46.201515844629
0	23590	5.5	46.58282488447
0	24406	5.6	46.922102384564
0	25236	5.7	47.252391764242
0	26041	5.8	47.582681143921
0	26905	5.9	47.912970523599
0	27874	6	48.243259903277
0	28708	6.1	48.573549282955
0	29541	6.2	48.903838662634
0	30663	6.3	49.234128042312
0	31849	6.4	49.498650453194
0	33047	6.5	49.696824081001
0	33948	6.6	49.894997708808
0	34976	6.7	50.093171336615
0	36204	6.8	50.291344964422
0	37283	6.9	50.489518592229
0	38229	7	50.687692220036
0	39311	7.1	50.885865847843
0	40586	7.2	51.059356556903
0	41746	7.3	51.11382927688
0	42815	7.4	51.168301996858
0	43915	7.5	51.222774716835
0	45065	7.6	51.277247436812
0	46182	7.7	51.33172015679
0	47268	7.8	51.386192876767
0	48356	7.9	51.440665596744
0	49595	8	51.495138316722
0	50940	8.1	51.549611036699
0	52349	8.2	51.6
0	53976	8.3	51.6
0	55372	8.4	51.6
0	56804	8.5	51.6
0	58481	8.6	51.6
0	59909	8.7	51.6
0	61467	8.8	51.6
0	63232	8.9	51.6
0	64859	9	51.6
0	66492	9.1	51.6
0	68188	9.2	51.6
0	70330	9.3	51.6
0	72226	9.4	51.6
0	73965	9.5	51.6
0	75632	9.6	51.6
0	77354	9.7	51.6
0	79173	9.8	51.6
0	80973	9.9	51.6
0	82861	10	51.6
0	84890	10.1	51.6
0	86772	10.2	51.6
0	88777	10.3	51.6
0	90937	10.4	51.6
0	93270	10.5	51.6
0	95428	10.6	51.6
0	97857	10.7	51.6
0	99990	10.8	51.6
0	102214	10.9	51.6
0	104700	11	51.6
0	107098	11.1	51.6
0	109529	11.2	51.6
0	111865	11.3	51.6
0	114171	11.4	51.6
0	116448	11.5	51.6
0	118865	11.6	51.6
0	121144	11.7	51.6
1	3	0.1	164.1
1	8	0.2	164.1
1	70	0.3	164.1
1	132	0.4	164.1
1	194	0.5	164.1
1	256	0.6	164.1
1	314	0.7	164.1
1	376	0.8	164.1
1	434	0.9	164.1
1	496	1	164.1
1	558	1.1	164.1
1	639	1.2	164.1
1	771	1.3	164.1
1	934	1.4	164.1
1	1104	1.5	164.1
1	1274	1.6	164.1
1	1444	1.7	164.1
1	1614	1.8	164.1
1	1784	1.9	164.1
1	1954	2	164.1
1	2124	2.1	164.1
1	2377	2.2	164.1
1	2755	2.3	164.1
1	3125	2.4	164.1
1	3590	2.5	164.1
1	4051	2.6	164.1
1	4534	2.7	164.1
1	5014	2.8	164.1
1	5499	2.9	164.1
1	5941	3	164.1
1	6295	3.1	164.1
1	6840	3.2	164.1
1	7315	3.3	164.1
1	8043	3.4	164.1
1	8628	3.5	164.1
1	9224	3.6	164.1
1	9789	3.7	164.1
1	10495	3.8	164.1
1	11170	3.9	164.1
1	11712	4	164.1
1	12280	4.1	164.1
1	13102	4.2	164.1
1	13979	4.3	164.1
1	14797	4.4	164.1
1	15467	4.5	164.1
1	16235	4.6	164.04985092487
1	17237	4.7	163.99537820489
1	18181	4.8	163.94090548492
1	19089	4.9	163.88643276494
1	19711	5	163.83196004496
1	20439	5.1	163.77748732499
1	21192	5.2	163.72301460501
1	21936	5.3	163.66854188503
1	22713	5.4	163.61406916505
1	23590	5.5	163.55959644508
1	24406	5.6	163.38673856926
1	25236	5.7	163.18856494145
1	26041	5.8	162.99039131365
1	26905	5.9	162.79221768584
1	27874	6	162.59404405803
1	28708	6.1	162.39587043023
1	29541	6.2	162.19769680242
1	30663	6.3	161.99952317461
1	31849	6.4	161.73558257801
1	33047	6.5	161.40529319833
1	33948	6.6	161.07500381865
1	34976	6.7	160.74471443897
1	36204	6.8	160.4144250593
1	37283	6.9	160.08413567962
1	38229	7	159.75384629994
1	39311	7.1	159.42355692026
1	40586	7.2	159.08450410168
1	41746	7.3	158.70319506184
1	42815	7.4	158.321886022
1	43915	7.5	157.94057698215
1	45065	7.6	157.55926794231
1	46182	7.7	157.17795890247
1	47268	7.8	156.79664986263
1	48356	7.9	156.41534082279
1	49595	8	156.03403178295
1	50940	8.1	155.65272274311
1	52349	8.2	155.271128
1	53976	8.3	154.886008
1	55372	8.4	154.500888
1	56804	8.5	154.115768
1	58481	8.6	153.730648
1	59909	8.7	153.345528
1	61467	8.8	152.960408
1	63232	8.9	152.575288
1	64859	9	152.190168
1	66492	9.1	151.805048
1	68188	9.2	151.419928
1	70330	9.3	151.034808
1	72226	9.4	150.649688
1	73965	9.5	150.264568
1	75632	9.6	149.879448
1	77354	9.7	149.494328
1	79173	9.8	149.109208
1	80973	9.9	148.724088
1	82861	10	148.338968
1	84890	10.1	147.953848
1	86772	10.2	147.568728
1	88777	10.3	147.183608
1	90937	10.4	146.798488
1	93270	10.5	146.413368
1	95428	10.6	146.028248
1	97857	10.7	145.643128
1	99990	10.8	145.258008
1	102214	10.9	144.872888
1	104700	11	144.487768
1	107098	11.1	144.102648
1	109529	11.2	143.717528
1	111865	11.3	143.332408
1	114171	11.4	142.947288
1	116448	11.5	142.562168
1	118865	11.6	142.177048
1	121144	11.7	141.791928
2	8	0.2	1.9
2	70	0.3	2.9
2	132	0.4	3.8512
2	194	0.5	3.8512
2	256	0.6	3.8512
2	314	0.7	3.8512
2	376	0.8	3.8512
2	434	0.9	3.8512
2	496	1	3.8512
2	558	1.1	3.8512
2	639	1.2	3.8512
2	771	1.3	3.8512
2	934	1.4	3.8512
2	1104	1.5	3.8512
2	1274	1.6	3.8512
2	1444	1.7	3.8512
2	1614	1.8	3.8512
2	1784	1.9	3.8512
2	1954	2	3.8512
2	2124	2.1	3.8512
2	2377	2.2	3.8512
2	2755	2.3	3.8512
2	3125	2.4	3.8512
2	3590	2.5	3.8512
2	4051	2.6	3.8512
2	4534	2.7	3.8512
2	5014	2.8	3.8512
2	5499	2.9	3.8512
2	5941	3	3.8512
2	6295	3.1	3.8512
2	6840	3.2	3.8512
2	7315	3.3	3.8512
2	8043	3.4	3.8512
2	8628	3.5	3.8512
2	9224	3.6	3.8512
2	9789	3.7	3.8512
2	10495	3.8	3.8512
2	11170	3.9	3.8512
2	11712	4	3.8512
2	12280	4.1	3.8512
2	13102	4.2	3.8512
2	13979	4.3	3.8512
2	14797	4.4	3.8512
2	15467	4.5	3.8512
2	16235	4.6	3.8512
2	17237	4.7	3.8512
2	18181	4.8	3.8512
2	19089	4.9	3.8512
2	19711	5	3.8512
2	20439	5.1	3.8512
2	21192	5.2	3.8512
2	21936	5.3	3.8512
2	22713	5.4	3.8512
2	23590	5.5	3.8512
2	24406	5.6	3.8512
2	25236	5.7	3.8512
2	26041	5.8	3.8512
2	26905	5.9	3.8512
2	27874	6	3.8512
2	28708	6.1	3.8512
2	29541	6.2	3.8512
2	30663	6.3	3.8512
2	31849	6.4	3.8512
2	33047	6.5	3.8512
2	33948	6.6	3.8512
2	34976	6.7	3.8512
2	36204	6.8	3.8512
2	37283	6.9	3.8512
2	38229	7	3.8512
2	39311	7.1	3.8512
2	40586	7.2	3.8512
2	41746	7.3	3.8512
2	42815	7.4	3.8512
2	43915	7.5	3.8512
2	45065	7.6	3.8512
2	46182	7.7	3.8512
2	47268	7.8	3.8512
2	48356	7.9	3.8512
2	49595	8	3.8512
2	50940	8.1	3.8512
2	52349	8.2	3.8512
2	53976	8.3	3.8512
2	55372	8.4	3.8512
2	56804	8.5	3.8512
2	58481	8.6	3.8512
2	59909	8.7	3.8512
2	61467	8.8	3.8512
2	63232	8.9	3.8512
2	64859	9	3.8512
2	66492	9.1	3.8512
2	68188	9.2	3.8512
2	70330	9.3	3.8512
2	72226	9.4	3.8512
2	73965	9.5	3.8512
2	75632	9.6	3.8512
2	77354	9.7	3.8512
2	79173	9.8	3.8512
2	80973	9.9	3.8512
2	82861	10	3.8512
2	84890	10.1	3.8512
2	86772	10.2	3.8512
2	88777	10.3	3.8512
2	90937	10.4	3.8512
2	93270	10.5	3.8512
2	95428	10.6	3.8512
2	97857	10.7	3.8512
2	99990	10.8	3.8512
2	102214	10.9	3.8512
2	104700	11	3.8512
2	107098	11.1	3.8512
2	109529	11.2	3.8512
2	111865	11.3	3.8512
2	114171	11.4	3.8512
2	116448	11.5	3.8512
2	118865	11.6	3.8512
2	121144	11.7	3.8512
3	70	0.3	10
3	132	0.4	9.512
3	194	0.5	0
3	256	0.6	0
3	314	0.7	0
3	376	0.8	0
3	434	0.9	0
3	496	1	0
3	558	1.1	0
3	639	1.2	0
3	771	1.3	0
3	934	1.4	0
3	1104	1.5	0
3	1274	1.6	0
3	1444	1.7	0
3	1614	1.8	0
3	1784	1.9	0
3	1954	2	0
3	2124	2.1	0
3	2377	2.2	0
3	2755	2.3	0
3	3125	2.4	0
3	3590	2.5	0
3	4051	2.6	0
3	4534	2.7	0
3	5014	2.8	0
3	5499	2.9	0
3	5941	3	0
3	6295	3.1	0
3	6840	3.2	0
3	7315	3.3	0
3	8043	3.4	0
3	8628	3.5	0
3	9224	3.6	0
3	9789	3.7	0
3	10495	3.8	0
3	11170	3.9	0
3	11712	4	0
3	12280	4.1	0
3	13102	4.2	0
3	13979	4.3	0
3	14797	4.4	0
3	15467	4.5	0
3	16235	4.6	0
3	17237	4.7	0
3	18181	4.8	0
3	19089	4.9	0
3	19711	5	0
3	20439	5.1	0
3	21192	5.2	0
3	21936	5.3	0
3	22713	5.4	0
3	23590	5.5	0
3	24406	5.6	0
3	25236	5.7	0
3	26041	5.8	0
3	26905	5.9	0
3	27874	6	0
3	28708	6.1	0
3	29541	6.2	0
3	30663	6.3	0
3	31849	6.4	0
3	33047	6.5	0
3	33948	6.6	0
3	34976	6.7	0
3	36204	6.8	0
3	37283	6.9	0
3	38229	7	0
3	39311	7.1	0
3	40586	7.2	0
3	41746	7.3	0
3	42815	7.4	0
3	43915	7.5	0
3	45065	7.6	0
3	46182	7.7	0
3	47268	7.8	0
3	48356	7.9	0
3	49595	8	0
3	50940	8.1	0
3	52349	8.2	0
3	53976	8.3	0
3	55372	8.4	0
3	56804	8.5	0
3	58481	8.6	0
3	59909	8.7	0
3	61467	8.8	0
3	63232	8.9	0
3	64859	9	0
3	66492	9.1	0
3	68188	9.2	0
3	70330	9.3	0
3	72226	9.4	0
3	73965	9.5	0
3	75632	9.6	0
3	77354	9.7	0
3	79173	9.8	0
3	80973	9.9	0
3	82861	10	0
3	84890	10.1	0
3	86772	10.2	0
3	88777	10.3	0
3	90937	10.4	0
3	93270	10.5	0
3	95428	10.6	0
3	97857	10.7	0
3	99990	10.8	0
3	102214	10.9	0
3	104700	11	0
3	107098	11.1	0
3	109529	11.2	0
3	111865	11.3	0
3	114171	11.4	0
3	116448	11.5	0
3	118865	11.6	0
3	121144	11.7	0
4	70	0.3	8.2411490285043
4	132	0.4	10.129518640269
4	194	0.5	1.3010585698689
4	256	0.6	1.3010585698689
4	314	0.7	1.3010585698689
4	376	0.8	1.3010585698689
4	434	0.9	1.3010585698689
4	496	1	1.3010585698689
4	558	1.1	1.3010585698689
4	639	1.2	1.3010585698689
4	771	1.3	1.3010585698689
4	934	1.4	1.3010585698689
4	1104	1.5	1.3010585698689
4	1274	1.6	1.3010585698689
4	1444	1.7	1.3010585698689
4	1614	1.8	1.3010585698689
4	1784	1.9	1.3010585698689
4	1954	2	1.3010585698689
4	2124	2.1	1.3010585698689
4	2377	2.2	1.3010585698689
4	2755	2.3	1.3010585698689
4	3125	2.4	1.3010585698689
4	3590	2.5	1.3010585698689
4	4051	2.6	1.3010585698689
4	4534	2.7	1.3010585698689
4	5014	2.8	1.3010585698689
4	5499	2.9	1.3010585698689
4	5941	3	1.3010585698689
4	6295	3.1	1.3010585698689
4	6840	3.2	1.3010585698689
4	7315	3.3	1.3010585698689
4	8043	3.4	1.3010585698689
4	8628	3.5	1.3010585698689
4	9224	3.6	1.3010585698689
4	9789	3.7	1.3010585698689
4	10495	3.8	1.3010585698689
4	11170	3.9	1.3010585698689
4	11712	4	1.3010585698689
4	12280	4.1	1.3010585698689
4	13102	4.2	1.3010585698689
4	13979	4.3	1.3010585698689
4	14797	4.4	1.3010585698689
4	15467	4.5	1.3010585698689
4	16235	4.6	1.3010585698689
4	17237	4.7	1.3010585698689
4	18181	4.8	1.3010585698689
4	19089	4.9	1.3010585698689
4	19711	5	1.3010585698689
4	20439	5.1	1.3010585698689
4	21192	5.2	1.3010585698689
4	21936	5.3	1.3010585698689
4	22713	5.4	1.3010585698689
4	23590	5.5	1.3010585698689
4	24406	5.6	1.3010585698689
4	25236	5.7	1.3010585698689
4	26041	5.8	1.3010585698689
4	26905	5.9	1.3010585698689
4	27874	6	1.3010585698689
4	28708	6.1	1.3010585698689
4	29541	6.2	1.3010585698689
4	30663	6.3	1.3010585698689
4	31849	6.4	1.3010585698689
4	33047	6.5	1.3010585698689
4	33948	6.6	1.3010585698689
4	34976	6.7	1.3010585698689
4	36204	6.8	1.3010585698689
4	37283	6.9	1.3010585698689
4	38229	7	1.3010585698689
4	39311	7.1	1.3010585698689
4	40586	7.2	1.3010585698689
4	41746	7.3	1.3010585698689
4	42815	7.4	1.3010585698689
4	43915	7.5	1.3010585698689
4	45065	7.6	1.3010585698689
4	46182	7.7	1.3010585698689
4	47268	7.8	1.3010585698689
4	48356	7.9	1.3010585698689
4	49595	8	1.3010585698689
4	50940	8.1	1.3010585698689
4	52349	8.2	1.3010585698689
4	53976	8.3	1.3010585698689
4	55372	8.4	1.3010585698689
4	56804	8.5	1.3010585698689
4	58481	8.6	1.3010585698689
4	59909	8.7	1.3010585698689
4	61467	8.8	1.3010585698689
4	63232	8.9	1.3010585698689
4	64859	9	1.3010585698689
4	66492	9.1	1.3010585698689
4	68188	9.2	1.3010585698689
4	70330	9.3	1.3010585698689
4	72226	9.4	1.3010585698689
4	73965	9.5	1.3010585698689
4	75632	9.6	1.3010585698689
4	77354	9.7	1.3010585698689
4	79173	9.8	1.3010585698689
4	80973	9.9	1.3010585698689
4	82861	10	1.3010585698689
4	84890	10.1	1.3010585698689
4	86772	10.2	1.3010585698689
4	88777	10.3	1.3010585698689
4	90937	10.4	1.3010585698689
4	93270	10.5	1.3010585698689
4	95428	10.6	1.3010585698689
4	97857	10.7	1.3010585698689
4	99990	10.8	1.3010585698689
4	102214	10.9	1.3010585698689
4	104700	11	1.3010585698689
4	107098	11.1	1.3010585698689
4	109529	11.2	1.3010585698689
4	111865	11.3	1.3010585698689
4	114171	11.4	1.3010585698689
4	116448	11.5	1.3010585698689
4	118865	11.6	1.3010585698689
4	121144	11.7	1.3010585698689
5	558	1.1	26.245
5	639	1.2	26.39
5	771	1.3	26.635
5	934	1.4	26.98
5	1104	1.5	27.403076
5	1274	1.6	27.831756
5	1444	1.7	28.260436
5	1614	1.8	28.689116
5	1784	1.9	29.117796
5	1954	2	29.546476
5	2124	2.1	29.975156
5	2377	2.2	30.403836
5	2755	2.3	30.832516
5	3125	2.4	31.261196
5	3590	2.5	31.689876
5	4051	2.6	32.118556
5	4534	2.7	32.547236
5	5014	2.8	32.975916
5	5499	2.9	33.404596
5	5941	3	33.833276
5	6295	3.1	34.261956
5	6840	3.2	34.690636
5	7315	3.3	35.119316
5	8043	3.4	35.547996
5	8628	3.5	35.976676
5	9224	3.6	36.405356
5	9789	3.7	36.834036
5	10495	3.8	37.262716
5	11170	3.9	37.691396
5	11712	4	38.120076
5	12280	4.1	38.548756
5	13102	4.2	38.977436
5	13979	4.3	39.406116
5	14797	4.4	39.834796
5	15467	4.5	40.263476
5	16235	4.6	40.692156
5	17237	4.7	41.120836
5	18181	4.8	41.549516
5	19089	4.9	41.978196
5	19711	5	42.406876
5	20439	5.1	42.835204155122
5	21192	5.2	43.259642146395
5	21936	5.3	43.684080137669
5	22713	5.4	44.108518128942
5	23590	5.5	44.532956120215
5	24406	5.6	44.957394111489
5	25236	5.7	45.381832102762
5	26041	5.8	45.806270094035
5	26905	5.9	46.230708085309
5	27874	6	46.654457524644
5	28708	6.1	47.022105144296
5	29541	6.2	47.389752763948
5	30663	6.3	47.757400383601
5	31849	6.4	48.125048003253
5	33047	6.5	48.492695622905
5	33948	6.6	48.860343242557
5	34976	6.7	49.22799086221
5	36204	6.8	49.517383089117
5	37283	6.9	49.737971660909
5	38229	7	49.9585602327
5	39311	7.1	50.179148804491
5	40586	7.2	50.399737376283
5	41746	7.3	50.620325948074
5	42815	7.4	50.840914519865
5	43915	7.5	51.053161897461
5	45065	7.6	51.113795896215
5	46182	7.7	51.174429894968
5	47268	7.8	51.235063893721
5	48356	7.9	51.295697892475
5	49595	8	51.356331891228
5	50940	8.1	51.416965889981
5	52349	8.2	51.477599888735
5	53976	8.3	51.538233887488
5	55372	8.4	51.598867886241
5	56804	8.5	51.6
5	58481	8.6	51.6
5	59909	8.7	51.6
5	61467	8.8	51.6
5	63232	8.9	51.6
5	64859	9	51.6
5	66492	9.1	51.6
5	68188	9.2	51.6
5	70330	9.3	51.6
5	72226	9.4	51.6
5	73965	9.5	51.6
5	75632	9.6	51.6
5	77354	9.7	51.6
5	79173	9.8	51.6
5	80973	9.9	51.6
5	82861	10	51.6
5	84890	10.1	51.6
5	86772	10.2	51.6
5	88777	10.3	51.6
5	90937	10.4	51.6
5	93270	10.5	51.6
5	95428	10.6	51.6
5	97857	10.7	51.6
5	99990	10.8	51.6
5	102214	10.9	51.6
5	104700	11	51.6
5	107098	11.1	51.6
5	109529	11.2	51.6
5	111865	11.3	51.6
5	114171	11.4	51.6
5	116448	11.5	51.6
5	118865	11.6	51.6
5	121144	11.7	51.6
6	558	1.1	189.1
6	639	1.2	189.1
6	771	1.3	189.1
6	934	1.4	189.1
6	1104	1.5	189.1
6	1274	1.6	189.1
6	1444	1.7	189.1
6	1614	1.8	189.1
6	1784	1.9	189.1
6	1954	2	189.1
6	2124	2.1	189.1
6	2377	2.2	189.1
6	2755	2.3	189.1
6	3125	2.4	189.1
6	3590	2.5	189.1
6	4051	2.6	189.1
6	4534	2.7	189.1
6	5014	2.8	189.1
6	5499	2.9	189.1
6	5941	3	189.1
6	6295	3.1	189.1
6	6840	3.2	189.1
6	7315	3.3	189.1
6	8043	3.4	189.1
6	8628	3.5	189.1
6	9224	3.6	189.1
6	9789	3.7	189.1
6	10495	3.8	189.1
6	11170	3.9	189.1
6	11712	4	189.1
6	12280	4.1	189.1
6	13102	4.2	189.1
6	13979	4.3	189.1
6	14797	4.4	189.1
6	15467	4.5	189.1
6	16235	4.6	189.1
6	17237	4.7	189.1
6	18181	4.8	189.1
6	19089	4.9	189.1
6	19711	5	189.1
6	20439	5.1	189.09497083498
6	21192	5.2	189.03433683623
6	21936	5.3	188.97370283748
6	22713	5.4	188.91306883872
6	23590	5.5	188.85243483997
6	24406	5.6	188.79180084122
6	25236	5.7	188.73116684246
6	26041	5.8	188.67053284371
6	26905	5.9	188.60989884496
6	27874	6	188.54732548521
6	28708	6.1	188.32673691342
6	29541	6.2	188.10614834163
6	30663	6.3	187.88555976984
6	31849	6.4	187.66497119805
6	33047	6.5	187.44438262626
6	33948	6.6	187.22379405447
6	34976	6.7	187.00320548267
6	36204	6.8	186.70436151814
6	37283	6.9	186.33671389849
6	38229	7	185.96906627883
6	39311	7.1	185.60141865918
6	40586	7.2	185.23377103953
6	41746	7.3	184.86612341988
6	42815	7.4	184.49847580022
6	43915	7.5	184.12786671777
6	45065	7.6	183.7034287265
6	46182	7.7	183.27899073522
6	47268	7.8	182.85455274395
6	48356	7.9	182.43011475268
6	49595	8	182.0056767614
6	50940	8.1	181.58123877013
6	52349	8.2	181.15680077886
6	53976	8.3	180.73236278758
6	55372	8.4	180.30792479631
6	56804	8.5	179.879324
6	58481	8.6	179.450644
6	59909	8.7	179.021964
6	61467	8.8	178.593284
6	63232	8.9	178.164604
6	64859	9	177.735924
6	66492	9.1	177.307244
6	68188	9.2	176.878564
6	70330	9.3	176.449884
6	72226	9.4	176.021204
6	73965	9.5	175.592524
6	75632	9.6	175.163844
6	77354	9.7	174.735164
6	79173	9.8	174.306484
6	80973	9.9	173.877804
6	82861	10	173.449124
6	84890	10.1	173.020444
6	86772	10.2	172.591764
6	88777	10.3	172.163084
6	90937	10.4	171.734404
6	93270	10.5	171.305724
6	95428	10.6	170.877044
6	97857	10.7	170.448364
6	99990	10.8	170.019684
6	102214	10.9	169.591004
6	104700	11	169.162324
6	107098	11.1	168.733644
6	109529	11.2	168.304964
6	111865	11.3	167.876284
6	114171	11.4	167.447604
6	116448	11.5	167.018924
6	118865	11.6	166.590244
6	121144	11.7	166.161564
7	639	1.2	1.9
7	771	1.3	2.9
7	934	1.4	3.9
7	1104	1.5	4.2868
7	1274	1.6	4.2868
7	1444	1.7	4.2868
7	1614	1.8	4.2868
7	1784	1.9	4.2868
7	1954	2	4.2868
7	2124	2.1	4.2868
7	2377	2.2	4.2868
7	2755	2.3	4.2868
7	3125	2.4	4.2868
7	3590	2.5	4.2868
7	4051	2.6	4.2868
7	4534	2.7	4.2868
7	5014	2.8	4.2868
7	5499	2.9	4.2868
7	5941	3	4.2868
7	6295	3.1	4.2868
7	6840	3.2	4.2868
7	7315	3.3	4.2868
7	8043	3.4	4.2868
7	8628	3.5	4.2868
7	9224	3.6	4.2868
7	9789	3.7	4.2868
7	10495	3.8	4.2868
7	11170	3.9	4.2868
7	11712	4	4.2868
7	12280	4.1	4.2868
7	13102	4.2	4.2868
7	13979	4.3	4.2868
7	14797	4.4	4.2868
7	15467	4.5	4.2868
7	16235	4.6	4.2868
7	17237	4.7	4.2868
7	18181	4.8	4.2868
7	19089	4.9	4.2868
7	19711	5	4.2868
7	20439	5.1	4.2868
7	21192	5.2	4.2868
7	21936	5.3	4.2868
7	22713	5.4	4.2868
7	23590	5.5	4.2868
7	24406	5.6	4.2868
7	25236	5.7	4.2868
7	26041	5.8	4.2868
7	26905	5.9	4.2868
7	27874	6	4.2868
7	28708	6.1	4.2868
7	29541	6.2	4.2868
7	30663	6.3	4.2868
7	31849	6.4	4.2868
7	33047	6.5	4.2868
7	33948	6.6	4.2868
7	34976	6.7	4.2868
7	36204	6.8	4.2868
7	37283	6.9	4.2868
7	38229	7	4.2868
7	39311	7.1	4.2868
7	40586	7.2	4.2868
7	41746	7.3	4.2868
7	42815	7.4	4.2868
7	43915	7.5	4.2868
7	45065	7.6	4.2868
7	46182	7.7	4.2868
7	47268	7.8	4.2868
7	48356	7.9	4.2868
7	49595	8	4.2868
7	50940	8.1	4.2868
7	52349	8.2	4.2868
7	53976	8.3	4.2868
7	55372	8.4	4.2868
7	56804	8.5	4.2868
7	58481	8.6	4.2868
7	59909	8.7	4.2868
7	61467	8.8	4.2868
7	63232	8.9	4.2868
7	64859	9	4.2868
7	66492	9.1	4.2868
7	68188	9.2	4.2868
7	70330	9.3	4.2868
7	72226	9.4	4.2868
7	73965	9.5	4.2868
7	75632	9.6	4.2868
7	77354	9.7	4.2868
7	79173	9.8	4.2868
7	80973	9.9	4.2868
7	82861	10	4.2868
7	84890	10.1	4.2868
7	86772	10.2	4.2868
7	88777	10.3	4.2868
7	90937	10.4	4.2868
7	93270	10.5	4.2868
7	95428	10.6	4.2868
7	97857	10.7	4.2868
7	99990	10.8	4.2868
7	102214	10.9	4.2868
7	104700	11	4.2868
7	107098	11.1	4.2868
7	109529	11.2	4.2868
7	111865	11.3	4.2868
7	114171	11.4	4.2868
7	116448	11.5	4.2868
7	118865	11.6	4.2868
7	121144	11.7	4.2868
8	771	1.3	10
8	934	1.4	10
8	1104	1.5	3.868
8	1274	1.6	0
8	1444	1.7	0
8	1614	1.8	0
8	1784	1.9	0
8	1954	2	0
8	2124	2.1	0
8	2377	2.2	0
8	2755	2.3	0
8	3125	2.4	0
8	3590	2.5	0
8	4051	2.6	0
8	4534	2.7	0
8	5014	2.8	0
8	5499	2.9	0
8	5941	3	0
8	6295	3.1	0
8	6840	3.2	0
8	7315	3.3	0
8	8043	3.4	0
8	8628	3.5	0
8	9224	3.6	0
8	9789	3.7	0
8	10495	3.8	0
8	11170	3.9	0
8	11712	4	0
8	12280	4.1	0
8	13102	4.2	0
8	13979	4.3	0
8	14797	4.4	0
8	15467	4.5	0
8	16235	4.6	0
8	17237	4.7	0
8	18181	4.8	0
8	19089	4.9	0
8	19711	5	0
8	20439	5.1	0
8	21192	5.2	0
8	21936	5.3	0
8	22713	5.4	0
8	23590	5.5	0
8	24406	5.6	0
8	25236	5.7	0
8	26041	5.8	0
8	26905	5.9	0
8	27874	6	0
8	28708	6.1	0
8	29541	6.2	0
8	30663	6.3	0
8	31849	6.4	0
8	33047	6.5	0
8	33948	6.6	0
8	34976	6.7	0
8	36204	6.8	0
8	37283	6.9	0
8	38229	7	0
8	39311	7.1	0
8	40586	7.2	0
8	41746	7.3	0
8	42815	7.4	0
8	43915	7.5	0
8	45065	7.6	0
8	46182	7.7	0
8	47268	7.8	0
8	48356	7.9	0
8	49595	8	0
8	50940	8.1	0
8	52349	8.2	0
8	53976	8.3	0
8	55372	8.4	0
8	56804	8.5	0
8	58481	8.6	0
8	59909	8.7	0
8	61467	8.8	0
8	63232	8.9	0
8	64859	9	0
8	66492	9.1	0
8	68188	9.2	0
8	70330	9.3	0
8	72226	9.4	0
8	73965	9.5	0
8	75632	9.6	0
8	77354	9.7	0
8	79173	9.8	0
8	80973	9.9	0
8	82861	10	0
8	84890	10.1	0
8	86772	10.2	0
8	88777	10.3	0
8	90937	10.4	0
8	93270	10.5	0
8	95428	10.6	0
8	97857	10.7	0
8	99990	10.8	0
8	102214	10.9	0
8	104700	11	0
8	107098	11.1	0
8	109529	11.2	0
8	111865	11.3	0
8	114171	11.4	0
8	116448	11.5	0
8	118865	11.6	0
8	121144	11.7	0
9	771	1.3	8.2411490285043
9	934	1.4	10.702615822783
9	1104	1.5	5.3201760852539
9	1274	1.6	1.3240725668539
9	1444	1.7	1.3240725668539
9	1614	1.8	1.3240725668539
9	1784	1.9	1.3240725668539
9	1954	2	1.3240725668539
9	2124	2.1	1.3240725668539
9	2377	2.2	1.3240725668539
9	2755	2.3	1.3240725668539
9	3125	2.4	1.3240725668539
9	3590	2.5	1.3240725668539
9	4051	2.6	1.3240725668539
9	4534	2.7	1.3240725668539
9	5014	2.8	1.3240725668539
9	5499	2.9	1.3240725668539
9	5941	3	1.3240725668539
9	6295	3.1	1.3240725668539
9	6840	3.2	1.3240725668539
9	7315	3.3	1.3240725668539
9	8043	3.4	1.3240725668539
9	8628	3.5	1.3240725668539
9	9224	3.6	1.3240725668539
9	9789	3.7	1.3240725668539
9	10495	3.8	1.3240725668539
9	11170	3.9	1.3240725668539
9	11712	4	1.3240725668539
9	12280	4.1	1.3240725668539
9	13102	4.2	1.3240725668539
9	13979	4.3	1.3240725668539
9	14797	4.4	1.3240725668539
9	15467	4.5	1.3240725668539
9	16235	4.6	1.3240725668539
9	17237	4.7	1.3240725668539
9	18181	4.8	1.3240725668539
9	19089	4.9	1.3240725668539
9	19711	5	1.3240725668539
9	20439	5.1	1.3240725668539
9	21192	5.2	1.3240725668539
9	21936	5.3	1.3240725668539
9	22713	5.4	1.3240725668539
9	23590	5.5	1.3240725668539
9	24406	5.6	1.3240725668539
9	25236	5.7	1.3240725668539
9	26041	5.8	1.3240725668539
9	26905	5.9	1.3240725668539
9	27874	6	1.3240725668539
9	28708	6.1	1.3240725668539
9	29541	6.2	1.3240725668539
9	30663	6.3	1.3240725668539
9	31849	6.4	1.3240725668539
9	33047	6.5	1.3240725668539
9	33948	6.6	1.3240725668539
9	34976	6.7	1.3240725668539
9	36204	6.8	1.3240725668539
9	37283	6.9	1.3240725668539
9	38229	7	1.3240725668539
9	39311	7.1	1.3240725668539
9	40586	7.2	1.3240725668539
9	41746	7.3	1.3240725668539
9	42815	7.4	1.3240725668539
9	43915	7.5	1.3240725668539
9	45065	7.6	1.3240725668539
9	46182	7.7	1.3240725668539
9	47268	7.8	1.3240725668539
9	48356	7.9	1.3240725668539
9	49595	8	1.3240725668539
9	50940	8.1	1.3240725668539
9	52349	8.2	1.3240725668539
9	53976	8.3	1.3240725668539
9	55372	8.4	1.3240725668539
9	56804	8.5	1.3240725668539
9	58481	8.6	1.3240725668539
9	59909	8.7	1.3240725668539
9	61467	8.8	1.3240725668539
9	63232	8.9	1.3240725668539
9	64859	9	1.3240725668539
9	66492	9.1	1.3240725668539
9	68188	9.2	1.3240725668539
9	70330	9.3	1.3240725668539
9	72226	9.4	1.3240725668539
9	73965	9.5	1.3240725668539
9	75632	9.6	1.3240725668539
9	77354	9.7	1.3240725668539
9	79173	9.8	1.3240725668539
9	80973	9.9	1.3240725668539
9	82861	10	1.3240725668539
9	84890	10.1	1.3240725668539
9	86772	10.2	1.3240725668539
9	88777	10.3	1.3240725668539
9	90937	10.4	1.3240725668539
9	93270	10.5	1.3240725668539
9	95428	10.6	1.3240725668539
9	97857	10.7	1.3240725668539
9	99990	10.8	1.3240725668539
9	102214	10.9	1.3240725668539
9	104700	11	1.3240725668539
9	107098	11.1	1.3240725668539
9	109529	11.2	1.3240725668539
9	111865	11.3	1.3240725668539
9	114171	11.4	1.3240725668539
9	116448	11.5	1.3240725668539
9	118865	11.6	1.3240725668539
9	121144	11.7	1.3240725668539
10	2124	2.1	636.255
10	2377	2.2	636.11
10	2755	2.3	635.865
10	3125	2.4	635.520352
10	3590	2.5	635.133872
10	4051	2.6	634.747392
10	4534	2.7	634.360912
10	5014	2.8	633.974432
10	5499	2.9	633.587952
10	5941	3	633.201472
10	6295	3.1	632.814992
10	6840	3.2	632.428512
10	7315	3.3	632.042032
10	8043	3.4	631.655552
10	8628	3.5	631.269072
10	9224	3.6	630.882592
10	9789	3.7	630.496112
10	10495	3.8	630.109632
10	11170	3.9	629.723152
10	11712	4	629.336672
10	12280	4.1	628.950192
10	13102	4.2	628.563712
10	13979	4.3	628.177232
10	14797	4.4	627.790752
10	15467	4.5	627.404272
10	16235	4.6	627.017792
10	17237	4.7	626.631312
10	18181	4.8	626.244832
10	19089	4.9	625.858352
10	19711	5	625.471872
10	20439	5.1	625.085392
10	21192	5.2	624.698912
10	21936	5.3	624.312432
10	22713	5.4	623.925952
10	23590	5.5	623.539472
10	24406	5.6	623.152992
10	25236	5.7	622.766512
10	26041	5.8	622.380032
10	26905	5.9	621.993552
10	27874	6	621.607072
10	28708	6.1	621.220592
10	29541	6.2	620.834112
10	30663	6.3	620.447632
10	31849	6.4	620.061152
10	33047	6.5	619.674672
10	33948	6.6	619.288192
10	34976	6.7	618.901712
10	36204	6.8	618.515232
10	37283	6.9	618.128752
10	38229	7	617.742272
10	39311	7.1	617.355792
10	40586	7.2	616.969312
10	41746	7.3	616.582832
10	42815	7.4	616.196352
10	43915	7.5	615.809872
10	45065	7.6	615.423392
10	46182	7.7	615.036912
10	47268	7.8	614.650432
10	48356	7.9	614.263952
10	49595	8	613.877472
10	50940	8.1	613.490992
10	52349	8.2	613.104512
10	53976	8.3	612.718032
10	55372	8.4	612.331552
10	56804	8.5	611.945072
10	58481	8.6	611.558592
10	59909	8.7	611.172112
10	61467	8.8	610.785632
10	63232	8.9	610.399152
10	64859	9	610.012672
10	66492	9.1	609.626192
10	68188	9.2	609.239712
10	70330	9.3	608.853232
10	72226	9.4	608.466752
10	73965	9.5	608.080272
10	75632	9.6	607.693792
10	77354	9.7	607.307312
10	79173	9.8	606.92359451071
10	80973	9.9	606.54093892877
10	82861	10	606.15828334683
10	84890	10.1	605.77562776488
10	86772	10.2	605.39297218294
10	88777	10.3	605.010316601
10	90937	10.4	604.62766101905
10	93270	10.5	604.24500543711
10	95428	10.6	603.86234985517
10	97857	10.7	603.47969427323
10	99990	10.8	603.13088525314
10	102214	10.9	602.7994295005
10	104700	11	602.46797374786
10	107098	11.1	602.13651799521
10	109529	11.2	601.80506224257
10	111865	11.3	601.47360648993
10	114171	11.4	601.14215073728
10	116448	11.5	600.81069498464
10	118865	11.6	600.5275435392
10	121144	11.7	600.32867008761
11	2124	2.1	185.9
11	2377	2.2	185.9
11	2755	2.3	185.9
11	3125	2.4	185.9
11	3590	2.5	185.9
11	4051	2.6	185.9
11	4534	2.7	185.9
11	5014	2.8	185.9
11	5499	2.9	185.9
11	5941	3	185.9
11	6295	3.1	185.9
11	6840	3.2	185.9
11	7315	3.3	185.9
11	8043	3.4	185.9
11	8628	3.5	185.9
11	9224	3.6	185.9
11	9789	3.7	185.9
11	10495	3.8	185.9
11	11170	3.9	185.9
11	11712	4	185.9
11	12280	4.1	185.9
11	13102	4.2	185.9
11	13979	4.3	185.9
11	14797	4.4	185.9
11	15467	4.5	185.9
11	16235	4.6	185.9
11	17237	4.7	185.9
11	18181	4.8	185.9
11	19089	4.9	185.9
11	19711	5	185.9
11	20439	5.1	185.9
11	21192	5.2	185.9
11	21936	5.3	185.9
11	22713	5.4	185.9
11	23590	5.5	185.9
11	24406	5.6	185.9
11	25236	5.7	185.9
11	26041	5.8	185.9
11	26905	5.9	185.9
11	27874	6	185.9
11	28708	6.1	185.9
11	29541	6.2	185.9
11	30663	6.3	185.9
11	31849	6.4	185.9
11	33047	6.5	185.9
11	33948	6.6	185.9
11	34976	6.7	185.9
11	36204	6.8	185.9
11	37283	6.9	185.9
11	38229	7	185.9
11	39311	7.1	185.9
11	40586	7.2	185.9
11	41746	7.3	185.9
11	42815	7.4	185.9
11	43915	7.5	185.9
11	45065	7.6	185.9
11	46182	7.7	185.9
11	47268	7.8	185.9
11	48356	7.9	185.9
11	49595	8	185.9
11	50940	8.1	185.9
11	52349	8.2	185.9
11	53976	8.3	185.9
11	55372	8.4	185.9
11	56804	8.5	185.9
11	58481	8.6	185.9
11	59909	8.7	185.9
11	61467	8.8	185.9
11	63232	8.9	185.9
11	64859	9	185.9
11	66492	9.1	185.9
11	68188	9.2	185.9
11	70330	9.3	185.9
11	72226	9.4	185.9
11	73965	9.5	185.9
11	75632	9.6	185.9
11	77354	9.7	185.9
11	79173	9.8	185.93948649847
11	80973	9.9	185.9941515816
11	82861	10	186.04881666474
11	84890	10.1	186.10348174787
11	86772	10.2	186.15814683101
11	88777	10.3	186.21281191414
11	90937	10.4	186.26747699728
11	93270	10.5	186.32214208041
11	95428	10.6	186.37680716355
11	97857	10.7	186.43147224668
11	99990	10.8	186.58146884811
11	102214	10.9	186.7803422997
11	104700	11	186.97921575129
11	107098	11.1	187.17808920287
11	109529	11.2	187.37696265446
11	111865	11.3	187.57583610604
11	114171	11.4	187.77470955763
11	116448	11.5	187.97358300922
11	118865	11.6	188.220760768
11	121144	11.7	188.55221652065
12	2124	2.1	636.255
12	2377	2.2	636.11
12	2755	2.3	635.865
12	3125	2.4	635.52
12	3590	2.5	635.08986
12	4051	2.6	634.64958
12	4534	2.7	634.2093
12	5014	2.8	633.76902
12	5499	2.9	633.32874
12	5941	3	632.88846
12	6295	3.1	632.44818
12	6840	3.2	632.0079
12	7315	3.3	631.56762
12	8043	3.4	631.12734
12	8628	3.5	630.68706
12	9224	3.6	630.24678
12	9789	3.7	629.8065
12	10495	3.8	629.36622
12	11170	3.9	628.92594
12	11712	4	628.48566
12	12280	4.1	628.04538
12	13102	4.2	627.6051
12	13979	4.3	627.16482
12	14797	4.4	626.72454
12	15467	4.5	626.28426
12	16235	4.6	625.84398
12	17237	4.7	625.4037
12	18181	4.8	624.96342
12	19089	4.9	624.52314
12	19711	5	624.08286
12	20439	5.1	623.64258
12	21192	5.2	623.2023
12	21936	5.3	622.76202
12	22713	5.4	622.32174
12	23590	5.5	621.88146
12	24406	5.6	621.44118
12	25236	5.7	621.0009
12	26041	5.8	620.56062
12	26905	5.9	620.12034
12	27874	6	619.68006
12	28708	6.1	619.23978
12	29541	6.2	618.7995
12	30663	6.3	618.35922
12	31849	6.4	617.91894
12	33047	6.5	617.47866
12	33948	6.6	617.03838
12	34976	6.7	616.5981
12	36204	6.8	616.15782
12	37283	6.9	615.71754
12	38229	7	615.27726
12	39311	7.1	614.83698
12	40586	7.2	614.3967
12	41746	7.3	613.95642
12	42815	7.4	613.51614
12	43915	7.5	613.07586
12	45065	7.6	612.63558
12	46182	7.7	612.1953
12	47268	7.8	611.75502
12	48356	7.9	611.31474
12	49595	8	610.87446
12	50940	8.1	610.43418
12	52349	8.2	609.9939
12	53976	8.3	609.55362
12	55372	8.4	609.11334
12	56804	8.5	608.67306
12	58481	8.6	608.23278
12	59909	8.7	607.7925
12	61467	8.8	607.35222
12	63232	8.9	606.91479050162
12	64859	9	606.4788672983
12	66492	9.1	606.04294409499
12	68188	9.2	605.60702089167
12	70330	9.3	605.17109768835
12	72226	9.4	604.73715815879
12	73965	9.5	604.35956206385
12	75632	9.6	603.9819659689
12	77354	9.7	603.60436987396
12	79173	9.8	603.22677377902
12	80973	9.9	602.90950661044
12	82861	10	602.68294895348
12	84890	10.1	602.45639129651
12	86772	10.2	602.22983363954
12	88777	10.3	602.00327598258
12	90937	10.4	601.90236942357
12	93270	10.5	601.84009468024
12	95428	10.6	601.77781993691
12	97857	10.7	601.71554519357
12	99990	10.8	601.65327045024
12	102214	10.9	601.6
12	104700	11	601.6
12	107098	11.1	601.6
12	109529	11.2	601.6
12	111865	11.3	601.6
12	114171	11.4	601.6
12	116448	11.5	601.6
12	118865	11.6	601.6
12	121144	11.7	601.6
13	2124	2.1	160.9
13	2377	2.2	160.9
13	2755	2.3	160.9
13	3125	2.4	160.9
13	3590	2.5	160.9
13	4051	2.6	160.9
13	4534	2.7	160.9
13	5014	2.8	160.9
13	5499	2.9	160.9
13	5941	3	160.9
13	6295	3.1	160.9
13	6840	3.2	160.9
13	7315	3.3	160.9
13	8043	3.4	160.9
13	8628	3.5	160.9
13	9224	3.6	160.9
13	9789	3.7	160.9
13	10495	3.8	160.9
13	11170	3.9	160.9
13	11712	4	160.9
13	12280	4.1	160.9
13	13102	4.2	160.9
13	13979	4.3	160.9
13	14797	4.4	160.9
13	15467	4.5	160.9
13	16235	4.6	160.9
13	17237	4.7	160.9
13	18181	4.8	160.9
13	19089	4.9	160.9
13	19711	5	160.9
13	20439	5.1	160.9
13	21192	5.2	160.9
13	21936	5.3	160.9
13	22713	5.4	160.9
13	23590	5.5	160.9
13	24406	5.6	160.9
13	25236	5.7	160.9
13	26041	5.8	160.9
13	26905	5.9	160.9
13	27874	6	160.9
13	28708	6.1	160.9
13	29541	6.2	160.9
13	30663	6.3	160.9
13	31849	6.4	160.9
13	33047	6.5	160.9
13	33948	6.6	160.9
13	34976	6.7	160.9
13	36204	6.8	160.9
13	37283	6.9	160.9
13	38229	7	160.9
13	39311	7.1	160.9
13	40586	7.2	160.9
13	41746	7.3	160.9
13	42815	7.4	160.9
13	43915	7.5	160.9
13	45065	7.6	160.9
13	46182	7.7	160.9
13	47268	7.8	160.9
13	48356	7.9	160.9
13	49595	8	160.9
13	50940	8.1	160.9
13	52349	8.2	160.9
13	53976	8.3	160.9
13	55372	8.4	160.9
13	56804	8.5	160.9
13	58481	8.6	160.9
13	59909	8.7	160.9
13	61467	8.8	160.9
13	63232	8.9	160.85925578595
13	64859	9	160.79698104261
13	66492	9.1	160.73470629928
13	68188	9.2	160.67243155595
13	70330	9.3	160.61015681262
13	72226	9.4	160.54229489527
13	73965	9.5	160.31573723831
13	75632	9.6	160.08917958134
13	77354	9.7	159.86262192438
13	79173	9.8	159.63606426741
13	80973	9.9	159.34917768407
13	82861	10	158.97158158913
13	84890	10.1	158.59398549418
13	86772	10.2	158.21638939924
13	88777	10.3	157.8387933043
13	90937	10.4	157.41658596497
13	93270	10.5	156.98066276166
13	95428	10.6	156.54473955834
13	97857	10.7	156.10881635502
13	99990	10.8	155.67289315171
13	102214	10.9	155.23634
13	104700	11	154.79606
13	107098	11.1	154.35578
13	109529	11.2	153.9155
13	111865	11.3	153.47522
13	114171	11.4	153.03494
13	116448	11.5	152.59466
13	118865	11.6	152.15438
13	121144	11.7	151.7141
14	2377	2.2	1.9
14	2755	2.3	2.9
14	3125	2.4	3.8648
14	3590	2.5	3.8648
14	4051	2.6	3.8648
14	4534	2.7	3.8648
14	5014	2.8	3.8648
14	5499	2.9	3.8648
14	5941	3	3.8648
14	6295	3.1	3.8648
14	6840	3.2	3.8648
14	7315	3.3	3.8648
14	8043	3.4	3.8648
14	8628	3.5	3.8648
14	9224	3.6	3.8648
14	9789	3.7	3.8648
14	10495	3.8	3.8648
14	11170	3.9	3.8648
14	11712	4	3.8648
14	12280	4.1	3.8648
14	13102	4.2	3.8648
14	13979	4.3	3.8648
14	14797	4.4	3.8648
14	15467	4.5	3.8648
14	16235	4.6	3.8648
14	17237	4.7	3.8648
14	18181	4.8	3.8648
14	19089	4.9	3.8648
14	19711	5	3.8648
14	20439	5.1	3.8648
14	21192	5.2	3.8648
14	21936	5.3	3.8648
14	22713	5.4	3.8648
14	23590	5.5	3.8648
14	24406	5.6	3.8648
14	25236	5.7	3.8648
14	26041	5.8	3.8648
14	26905	5.9	3.8648
14	27874	6	3.8648
14	28708	6.1	3.8648
14	29541	6.2	3.8648
14	30663	6.3	3.8648
14	31849	6.4	3.8648
14	33047	6.5	3.8648
14	33948	6.6	3.8648
14	34976	6.7	3.8648
14	36204	6.8	3.8648
14	37283	6.9	3.8648
14	38229	7	3.8648
14	39311	7.1	3.8648
14	40586	7.2	3.8648
14	41746	7.3	3.8648
14	42815	7.4	3.8648
14	43915	7.5	3.8648
14	45065	7.6	3.8648
14	46182	7.7	3.8648
14	47268	7.8	3.8648
14	48356	7.9	3.8648
14	49595	8	3.8648
14	50940	8.1	3.8648
14	52349	8.2	3.8648
14	53976	8.3	3.8648
14	55372	8.4	3.8648
14	56804	8.5	3.8648
14	58481	8.6	3.8648
14	59909	8.7	3.8648
14	61467	8.8	3.8648
14	63232	8.9	3.8648
14	64859	9	3.8648
14	66492	9.1	3.8648
14	68188	9.2	3.8648
14	70330	9.3	3.8648
14	72226	9.4	3.8648
14	73965	9.5	3.8648
14	75632	9.6	3.8648
14	77354	9.7	3.8648
14	79173	9.8	3.8648
14	80973	9.9	3.8648
14	82861	10	3.8648
14	84890	10.1	3.8648
14	86772	10.2	3.8648
14	88777	10.3	3.8648
14	90937	10.4	3.8648
14	93270	10.5	3.8648
14	95428	10.6	3.8648
14	97857	10.7	3.8648
14	99990	10.8	3.8648
14	102214	10.9	3.8648
14	104700	11	3.8648
14	107098	11.1	3.8648
14	109529	11.2	3.8648
14	111865	11.3	3.8648
14	114171	11.4	3.8648
14	116448	11.5	3.8648
14	118865	11.6	3.8648
14	121144	11.7	3.8648
15	2377	2.2	1.9
15	2755	2.3	2.9
15	3125	2.4	3.9
15	3590	2.5	4.4028
15	4051	2.6	4.4028
15	4534	2.7	4.4028
15	5014	2.8	4.4028
15	5499	2.9	4.4028
15	5941	3	4.4028
15	6295	3.1	4.4028
15	6840	3.2	4.4028
15	7315	3.3	4.4028
15	8043	3.4	4.4028
15	8628	3.5	4.4028
15	9224	3.6	4.4028
15	9789	3.7	4.4028
15	10495	3.8	4.4028
15	11170	3.9	4.4028
15	11712	4	4.4028
15	12280	4.1	4.4028
15	13102	4.2	4.4028
15	13979	4.3	4.4028
15	14797	4.4	4.4028
15	15467	4.5	4.4028
15	16235	4.6	4.4028
15	17237	4.7	4.4028
15	18181	4.8	4.4028
15	19089	4.9	4.4028
15	19711	5	4.4028
15	20439	5.1	4.4028
15	21192	5.2	4.4028
15	21936	5.3	4.4028
15	22713	5.4	4.4028
15	23590	5.5	4.4028
15	24406	5.6	4.4028
15	25236	5.7	4.4028
15	26041	5.8	4.4028
15	26905	5.9	4.4028
15	27874	6	4.4028
15	28708	6.1	4.4028
15	29541	6.2	4.4028
15	30663	6.3	4.4028
15	31849	6.4	4.4028
15	33047	6.5	4.4028
15	33948	6.6	4.4028
15	34976	6.7	4.4028
15	36204	6.8	4.4028
15	37283	6.9	4.4028
15	38229	7	4.4028
15	39311	7.1	4.4028
15	40586	7.2	4.4028
15	41746	7.3	4.4028
15	42815	7.4	4.4028
15	43915	7.5	4.4028
15	45065	7.6	4.4028
15	46182	7.7	4.4028
15	47268	7.8	4.4028
15	48356	7.9	4.4028
15	49595	8	4.4028
15	50940	8.1	4.4028
15	52349	8.2	4.4028
15	53976	8.3	4.4028
15	55372	8.4	4.4028
15	56804	8.5	4.4028
15	58481	8.6	4.4028
15	59909	8.7	4.4028
15	61467	8.8	4.4028
15	63232	8.9	4.4028
15	64859	9	4.4028
15	66492	9.1	4.4028
15	68188	9.2	4.4028
15	70330	9.3	4.4028
15	72226	9.4	4.4028
15	73965	9.5	4.4028
15	75632	9.6	4.4028
15	77354	9.7	4.4028
15	79173	9.8	4.4028
15	80973	9.9	4.4028
15	82861	10	4.4028
15	84890	10.1	4.4028
15	86772	10.2	4.4028
15	88777	10.3	4.4028
15	90937	10.4	4.4028
15	93270	10.5	4.4028
15	95428	10.6	4.4028
15	97857	10.7	4.4028
15	99990	10.8	4.4028
15	102214	10.9	4.4028
15	104700	11	4.4028
15	107098	11.1	4.4028
15	109529	11.2	4.4028
15	111865	11.3	4.4028
15	114171	11.4	4.4028
15	116448	11.5	4.4028
15	118865	11.6	4.4028
15	121144	11.7	4.4028
16	2755	2.3	10
16	3125	2.4	9.648
16	3590	2.5	0
16	4051	2.6	0
16	4534	2.7	0
16	5014	2.8	0
16	5499	2.9	0
16	5941	3	0
16	6295	3.1	0
16	6840	3.2	0
16	7315	3.3	0
16	8043	3.4	0
16	8628	3.5	0
16	9224	3.6	0
16	9789	3.7	0
16	10495	3.8	0
16	11170	3.9	0
16	11712	4	0
16	12280	4.1	0
16	13102	4.2	0
16	13979	4.3	0
16	14797	4.4	0
16	15467	4.5	0
16	16235	4.6	0
16	17237	4.7	0
16	18181	4.8	0
16	19089	4.9	0
16	19711	5	0
16	20439	5.1	0
16	21192	5.2	0
16	21936	5.3	0
16	22713	5.4	0
16	23590	5.5	0
16	24406	5.6	0
16	25236	5.7	0
16	26041	5.8	0
16	26905	5.9	0
16	27874	6	0
16	28708	6.1	0
16	29541	6.2	0
16	30663	6.3	0
16	31849	6.4	0
16	33047	6.5	0
16	33948	6.6	0
16	34976	6.7	0
16	36204	6.8	0
16	37283	6.9	0
16	38229	7	0
16	39311	7.1	0
16	40586	7.2	0
16	41746	7.3	0
16	42815	7.4	0
16	43915	7.5	0
16	45065	7.6	0
16	46182	7.7	0
16	47268	7.8	0
16	48356	7.9	0
16	49595	8	0
16	50940	8.1	0
16	52349	8.2	0
16	53976	8.3	0
16	55372	8.4	0
16	56804	8.5	0
16	58481	8.6	0
16	59909	8.7	0
16	61467	8.8	0
16	63232	8.9	0
16	64859	9	0
16	66492	9.1	0
16	68188	9.2	0
16	70330	9.3	0
16	72226	9.4	0
16	73965	9.5	0
16	75632	9.6	0
16	77354	9.7	0
16	79173	9.8	0
16	80973	9.9	0
16	82861	10	0
16	84890	10.1	0
16	86772	10.2	0
16	88777	10.3	0
16	90937	10.4	0
16	93270	10.5	0
16	95428	10.6	0
16	97857	10.7	0
16	99990	10.8	0
16	102214	10.9	0
16	104700	11	0
16	107098	11.1	0
16	109529	11.2	0
16	111865	11.3	0
16	114171	11.4	0
16	116448	11.5	0
16	118865	11.6	0
16	121144	11.7	0
17	2755	2.3	8.2411490285043
17	3125	2.4	10.288080019609
17	3590	2.5	1.3017707332089
17	4051	2.6	1.3017707332089
17	4534	2.7	1.3017707332089
17	5014	2.8	1.3017707332089
17	5499	2.9	1.3017707332089
17	5941	3	1.3017707332089
17	6295	3.1	1.3017707332089
17	6840	3.2	1.3017707332089
17	7315	3.3	1.3017707332089
17	8043	3.4	1.3017707332089
17	8628	3.5	1.3017707332089
17	9224	3.6	1.3017707332089
17	9789	3.7	1.3017707332089
17	10495	3.8	1.3017707332089
17	11170	3.9	1.3017707332089
17	11712	4	1.3017707332089
17	12280	4.1	1.3017707332089
17	13102	4.2	1.3017707332089
17	13979	4.3	1.3017707332089
17	14797	4.4	1.3017707332089
17	15467	4.5	1.3017707332089
17	16235	4.6	1.3017707332089
17	17237	4.7	1.3017707332089
17	18181	4.8	1.3017707332089
17	19089	4.9	1.3017707332089
17	19711	5	1.3017707332089
17	20439	5.1	1.3017707332089
17	21192	5.2	1.3017707332089
17	21936	5.3	1.3017707332089
17	22713	5.4	1.3017707332089
17	23590	5.5	1.3017707332089
17	24406	5.6	1.3017707332089
17	25236	5.7	1.3017707332089
17	26041	5.8	1.3017707332089
17	26905	5.9	1.3017707332089
17	27874	6	1.3017707332089
17	28708	6.1	1.3017707332089
17	29541	6.2	1.3017707332089
17	30663	6.3	1.3017707332089
17	31849	6.4	1.3017707332089
17	33047	6.5	1.3017707332089
17	33948	6.6	1.3017707332089
17	34976	6.7	1.3017707332089
17	36204	6.8	1.3017707332089
17	37283	6.9	1.3017707332089
17	38229	7	1.3017707332089
17	39311	7.1	1.3017707332089
17	40586	7.2	1.3017707332089
17	41746	7.3	1.3017707332089
17	42815	7.4	1.3017707332089
17	43915	7.5	1.3017707332089
17	45065	7.6	1.3017707332089
17	46182	7.7	1.3017707332089
17	47268	7.8	1.3017707332089
17	48356	7.9	1.3017707332089
17	49595	8	1.3017707332089
17	50940	8.1	1.3017707332089
17	52349	8.2	1.3017707332089
17	53976	8.3	1.3017707332089
17	55372	8.4	1.3017707332089
17	56804	8.5	1.3017707332089
17	58481	8.6	1.3017707332089
17	59909	8.7	1.3017707332089
17	61467	8.8	1.3017707332089
17	63232	8.9	1.3017707332089
17	64859	9	1.3017707332089
17	66492	9.1	1.3017707332089
17	68188	9.2	1.3017707332089
17	70330	9.3	1.3017707332089
17	72226	9.4	1.3017707332089
17	73965	9.5	1.3017707332089
17	75632	9.6	1.3017707332089
17	77354	9.7	1.3017707332089
17	79173	9.8	1.3017707332089
17	80973	9.9	1.3017707332089
17	82861	10	1.3017707332089
17	84890	10.1	1.3017707332089
17	86772	10.2	1.3017707332089
17	88777	10.3	1.3017707332089
17	90937	10.4	1.3017707332089
17	93270	10.5	1.3017707332089
17	95428	10.6	1.3017707332089
17	97857	10.7	1.3017707332089
17	99990	10.8	1.3017707332089
17	102214	10.9	1.3017707332089
17	104700	11	1.3017707332089
17	107098	11.1	1.3017707332089
17	109529	11.2	1.3017707332089
17	111865	11.3	1.3017707332089
17	114171	11.4	1.3017707332089
17	116448	11.5	1.3017707332089
17	118865	11.6	1.3017707332089
17	121144	11.7	1.3017707332089
18	2755	2.3	10
18	3125	2.4	10
18	3590	2.5	5.028
18	4051	2.6	0
18	4534	2.7	0
18	5014	2.8	0
18	5499	2.9	0
18	5941	3	0
18	6295	3.1	0
18	6840	3.2	0
18	7315	3.3	0
18	8043	3.4	0
18	8628	3.5	0
18	9224	3.6	0
18	9789	3.7	0
18	10495	3.8	0
18	11170	3.9	0
18	11712	4	0
18	12280	4.1	0
18	13102	4.2	0
18	13979	4.3	0
18	14797	4.4	0
18	15467	4.5	0
18	16235	4.6	0
18	17237	4.7	0
18	18181	4.8	0
18	19089	4.9	0
18	19711	5	0
18	20439	5.1	0
18	21192	5.2	0
18	21936	5.3	0
18	22713	5.4	0
18	23590	5.5	0
18	24406	5.6	0
18	25236	5.7	0
18	26041	5.8	0
18	26905	5.9	0
18	27874	6	0
18	28708	6.1	0
18	29541	6.2	0
18	30663	6.3	0
18	31849	6.4	0
18	33047	6.5	0
18	33948	6.6	0
18	34976	6.7	0
18	36204	6.8	0
18	37283	6.9	0
18	38229	7	0
18	39311	7.1	0
18	40586	7.2	0
18	41746	7.3	0
18	42815	7.4	0
18	43915	7.5	0
18	45065	7.6	0
18	46182	7.7	0
18	47268	7.8	0
18	48356	7.9	0
18	49595	8	0
18	50940	8.1	0
18	52349	8.2	0
18	53976	8.3	0
18	55372	8.4	0
18	56804	8.5	0
18	58481	8.6	0
18	59909	8.7	0
18	61467	8.8	0
18	63232	8.9	0
18	64859	9	0
18	66492	9.1	0
18	68188	9.2	0
18	70330	9.3	0
18	72226	9.4	0
18	73965	9.5	0
18	75632	9.6	0
18	77354	9.7	0
18	79173	9.8	0
18	80973	9.9	0
18	82861	10	0
18	84890	10.1	0
18	86772	10.2	0
18	88777	10.3	0
18	90937	10.4	0
18	93270	10.5	0
18	95428	10.6	0
18	97857	10.7	0
18	99990	10.8	0
18	102214	10.9	0
18	104700	11	0
18	107098	11.1	0
18	109529	11.2	0
18	111865	11.3	0
18	114171	11.4	0
18	116448	11.5	0
18	118865	11.6	0
18	121144	11.7	0
19	2755	2.3	8.2411490285043
19	3125	2.4	10.702615822783
19	3590	2.5	6.665359401499
19	4051	2.6	1.330275307099
19	4534	2.7	1.330275307099
19	5014	2.8	1.330275307099
19	5499	2.9	1.330275307099
19	5941	3	1.330275307099
19	6295	3.1	1.330275307099
19	6840	3.2	1.330275307099
19	7315	3.3	1.330275307099
19	8043	3.4	1.330275307099
19	8628	3.5	1.330275307099
19	9224	3.6	1.330275307099
19	9789	3.7	1.330275307099
19	10495	3.8	1.330275307099
19	11170	3.9	1.330275307099
19	11712	4	1.330275307099
19	12280	4.1	1.330275307099
19	13102	4.2	1.330275307099
19	13979	4.3	1.330275307099
19	14797	4.4	1.330275307099
19	15467	4.5	1.330275307099
19	16235	4.6	1.330275307099
19	17237	4.7	1.330275307099
19	18181	4.8	1.330275307099
19	19089	4.9	1.330275307099
19	19711	5	1.330275307099
19	20439	5.1	1.330275307099
19	21192	5.2	1.330275307099
19	21936	5.3	1.330275307099
19	22713	5.4	1.330275307099
19	23590	5.5	1.330275307099
19	24406	5.6	1.330275307099
19	25236	5.7	1.330275307099
19	26041	5.8	1.330275307099
19	26905	5.9	1.330275307099
19	27874	6	1.330275307099
19	28708	6.1	1.330275307099
19	29541	6.2	1.330275307099
19	30663	6.3	1.330275307099
19	31849	6.4	1.330275307099
19	33047	6.5	1.330275307099
19	33948	6.6	1.330275307099
19	34976	6.7	1.330275307099
19	36204	6.8	1.330275307099
19	37283	6.9	1.330275307099
19	38229	7	1.330275307099
19	39311	7.1	1.330275307099
19	40586	7.2	1.330275307099
19	41746	7.3	1.330275307099
19	42815	7.4	1.330275307099
19	43915	7.5	1.330275307099
19	45065	7.6	1.330275307099
19	46182	7.7	1.330275307099
19	47268	7.8	1.330275307099
19	48356	7.9	1.330275307099
19	49595	8	1.330275307099
19	50940	8.1	1.330275307099
19	52349	8.2	1.330275307099
19	53976	8.3	1.330275307099
19	55372	8.4	1.330275307099
19	56804	8.5	1.330275307099
19	58481	8.6	1.330275307099
19	59909	8.7	1.330275307099
19	61467	8.8	1.330275307099
19	63232	8.9	1.330275307099
19	64859	9	1.330275307099
19	66492	9.1	1.330275307099
19	68188	9.2	1.330275307099
19	70330	9.3	1.330275307099
19	72226	9.4	1.330275307099
19	73965	9.5	1.330275307099
19	75632	9.6	1.330275307099
19	77354	9.7	1.330275307099
19	79173	9.8	1.330275307099
19	80973	9.9	1.330275307099
19	82861	10	1.330275307099
19	84890	10.1	1.330275307099
19	86772	10.2	1.330275307099
19	88777	10.3	1.330275307099
19	90937	10.4	1.330275307099
19	93270	10.5	1.330275307099
19	95428	10.6	1.330275307099
19	97857	10.7	1.330275307099
19	99990	10.8	1.330275307099
19	102214	10.9	1.330275307099
19	104700	11	1.330275307099
19	107098	11.1	1.330275307099
19	109529	11.2	1.330275307099
19	111865	11.3	1.330275307099
19	114171	11.4	1.330275307099
19	116448	11.5	1.330275307099
19	118865	11.6	1.330275307099
19	121144	11.7	1.330275307099
20	6295	3.1	26.245
20	6840	3.2	26.39
20	7315	3.3	26.635
20	8043	3.4	26.98
20	8628	3.5	27.409328
20	9224	3.6	27.848208
20	9789	3.7	28.287088
20	10495	3.8	28.725968
20	11170	3.9	29.164848
20	11712	4	29.603728
20	12280	4.1	30.042608
20	13102	4.2	30.481488
20	13979	4.3	30.920368
20	14797	4.4	31.359248
20	15467	4.5	31.798128
20	16235	4.6	32.237008
20	17237	4.7	32.675888
20	18181	4.8	33.114768
20	19089	4.9	33.553648
20	19711	5	33.992528
20	20439	5.1	34.431408
20	21192	5.2	34.870288
20	21936	5.3	35.309168
20	22713	5.4	35.748048
20	23590	5.5	36.186928
20	24406	5.6	36.625808
20	25236	5.7	37.064688
20	26041	5.8	37.503568
20	26905	5.9	37.942448
20	27874	6	38.381328
20	28708	6.1	38.820208
20	29541	6.2	39.259088
20	30663	6.3	39.697968
20	31849	6.4	40.136848
20	33047	6.5	40.575728
20	33948	6.6	41.014608
20	34976	6.7	41.453488
20	36204	6.8	41.892368
20	37283	6.9	42.331248
20	38229	7	42.770128
20	39311	7.1	43.204960655815
20	40586	7.2	43.63949771285
20	41746	7.3	44.074034769886
20	42815	7.4	44.508571826922
20	43915	7.5	44.943108883957
20	45065	7.6	45.36056674315
20	46182	7.7	45.736962160042
20	47268	7.8	46.113357576933
20	48356	7.9	46.489752993824
20	49595	8	46.866148410716
20	50940	8.1	47.145526296564
20	52349	8.2	47.371363546699
20	53976	8.3	47.597200796834
20	55372	8.4	47.823038046969
20	56804	8.5	48.048875297104
20	58481	8.6	48.111767571178
20	59909	8.7	48.173844293611
20	61467	8.8	48.235921016045
20	63232	8.9	48.297997738479
20	64859	9	48.360074460912
20	66492	9.1	48.4
20	68188	9.2	48.4
20	70330	9.3	48.4
20	72226	9.4	48.4
20	73965	9.5	48.4
20	75632	9.6	48.4
20	77354	9.7	48.4
20	79173	9.8	48.4
20	80973	9.9	48.4
20	82861	10	48.4
20	84890	10.1	48.4
20	86772	10.2	48.4
20	88777	10.3	48.4
20	90937	10.4	48.4
20	93270	10.5	48.4
20	95428	10.6	48.4
20	97857	10.7	48.4
20	99990	10.8	48.4
20	102214	10.9	48.4
20	104700	11	48.4
20	107098	11.1	48.4
20	109529	11.2	48.4
20	111865	11.3	48.4
20	114171	11.4	48.4
20	116448	11.5	48.4
20	118865	11.6	48.4
20	121144	11.7	48.4
21	6295	3.1	164.1
21	6840	3.2	164.1
21	7315	3.3	164.1
21	8043	3.4	164.1
21	8628	3.5	164.1
21	9224	3.6	164.1
21	9789	3.7	164.1
21	10495	3.8	164.1
21	11170	3.9	164.1
21	11712	4	164.1
21	12280	4.1	164.1
21	13102	4.2	164.1
21	13979	4.3	164.1
21	14797	4.4	164.1
21	15467	4.5	164.1
21	16235	4.6	164.1
21	17237	4.7	164.1
21	18181	4.8	164.1
21	19089	4.9	164.1
21	19711	5	164.1
21	20439	5.1	164.1
21	21192	5.2	164.1
21	21936	5.3	164.1
21	22713	5.4	164.1
21	23590	5.5	164.1
21	24406	5.6	164.1
21	25236	5.7	164.1
21	26041	5.8	164.1
21	26905	5.9	164.1
21	27874	6	164.1
21	28708	6.1	164.1
21	29541	6.2	164.1
21	30663	6.3	164.1
21	31849	6.4	164.1
21	33047	6.5	164.1
21	33948	6.6	164.1
21	34976	6.7	164.1
21	36204	6.8	164.1
21	37283	6.9	164.1
21	38229	7	164.1
21	39311	7.1	164.15785152226
21	40586	7.2	164.21992824469
21	41746	7.3	164.28200496713
21	42815	7.4	164.34408168956
21	43915	7.5	164.40615841199
21	45065	7.6	164.51634004589
21	46182	7.7	164.74217729602
21	47268	7.8	164.96801454616
21	48356	7.9	165.19385179629
21	49595	8	165.41968904643
21	50940	8.1	165.74254382761
21	52349	8.2	166.1189392445
21	53976	8.3	166.49533466139
21	55372	8.4	166.87173007828
21	56804	8.5	167.24812549517
21	58481	8.6	167.68237299824
21	59909	8.7	168.11691005528
21	61467	8.8	168.55144711232
21	63232	8.9	168.98598416935
21	64859	9	169.42052122639
21	66492	9.1	169.856608
21	68188	9.2	170.295488
21	70330	9.3	170.734368
21	72226	9.4	171.173248
21	73965	9.5	171.612128
21	75632	9.6	172.051008
21	77354	9.7	172.489888
21	79173	9.8	172.928768
21	80973	9.9	173.367648
21	82861	10	173.806528
21	84890	10.1	174.245408
21	86772	10.2	174.684288
21	88777	10.3	175.123168
21	90937	10.4	175.562048
21	93270	10.5	176.000928
21	95428	10.6	176.439808
21	97857	10.7	176.878688
21	99990	10.8	177.317568
21	102214	10.9	177.756448
21	104700	11	178.195328
21	107098	11.1	178.634208
21	109529	11.2	179.073088
21	111865	11.3	179.511968
21	114171	11.4	179.950848
21	116448	11.5	180.389728
21	118865	11.6	180.828608
21	121144	11.7	181.267488
22	6840	3.2	1.9
22	7315	3.3	2.9
22	8043	3.4	3.9
22	8628	3.5	4.3888
22	9224	3.6	4.3888
22	9789	3.7	4.3888
22	10495	3.8	4.3888
22	11170	3.9	4.3888
22	11712	4	4.3888
22	12280	4.1	4.3888
22	13102	4.2	4.3888
22	13979	4.3	4.3888
22	14797	4.4	4.3888
22	15467	4.5	4.3888
22	16235	4.6	4.3888
22	17237	4.7	4.3888
22	18181	4.8	4.3888
22	19089	4.9	4.3888
22	19711	5	4.3888
22	20439	5.1	4.3888
22	21192	5.2	4.3888
22	21936	5.3	4.3888
22	22713	5.4	4.3888
22	23590	5.5	4.3888
22	24406	5.6	4.3888
22	25236	5.7	4.3888
22	26041	5.8	4.3888
22	26905	5.9	4.3888
22	27874	6	4.3888
22	28708	6.1	4.3888
22	29541	6.2	4.3888
22	30663	6.3	4.3888
22	31849	6.4	4.3888
22	33047	6.5	4.3888
22	33948	6.6	4.3888
22	34976	6.7	4.3888
22	36204	6.8	4.3888
22	37283	6.9	4.3888
22	38229	7	4.3888
22	39311	7.1	4.3888
22	40586	7.2	4.3888
22	41746	7.3	4.3888
22	42815	7.4	4.3888
22	43915	7.5	4.3888
22	45065	7.6	4.3888
22	46182	7.7	4.3888
22	47268	7.8	4.3888
22	48356	7.9	4.3888
22	49595	8	4.3888
22	50940	8.1	4.3888
22	52349	8.2	4.3888
22	53976	8.3	4.3888
22	55372	8.4	4.3888
22	56804	8.5	4.3888
22	58481	8.6	4.3888
22	59909	8.7	4.3888
22	61467	8.8	4.3888
22	63232	8.9	4.3888
22	64859	9	4.3888
22	66492	9.1	4.3888
22	68188	9.2	4.3888
22	70330	9.3	4.3888
22	72226	9.4	4.3888
22	73965	9.5	4.3888
22	75632	9.6	4.3888
22	77354	9.7	4.3888
22	79173	9.8	4.3888
22	80973	9.9	4.3888
22	82861	10	4.3888
22	84890	10.1	4.3888
22	86772	10.2	4.3888
22	88777	10.3	4.3888
22	90937	10.4	4.3888
22	93270	10.5	4.3888
22	95428	10.6	4.3888
22	97857	10.7	4.3888
22	99990	10.8	4.3888
22	102214	10.9	4.3888
22	104700	11	4.3888
22	107098	11.1	4.3888
22	109529	11.2	4.3888
22	111865	11.3	4.3888
22	114171	11.4	4.3888
22	116448	11.5	4.3888
22	118865	11.6	4.3888
22	121144	11.7	4.3888
23	7315	3.3	10
23	8043	3.4	10
23	8628	3.5	4.888
23	9224	3.6	0
23	9789	3.7	0
23	10495	3.8	0
23	11170	3.9	0
23	11712	4	0
23	12280	4.1	0
23	13102	4.2	0
23	13979	4.3	0
23	14797	4.4	0
23	15467	4.5	0
23	16235	4.6	0
23	17237	4.7	0
23	18181	4.8	0
23	19089	4.9	0
23	19711	5	0
23	20439	5.1	0
23	21192	5.2	0
23	21936	5.3	0
23	22713	5.4	0
23	23590	5.5	0
23	24406	5.6	0
23	25236	5.7	0
23	26041	5.8	0
23	26905	5.9	0
23	27874	6	0
23	28708	6.1	0
23	29541	6.2	0
23	30663	6.3	0
23	31849	6.4	0
23	33047	6.5	0
23	33948	6.6	0
23	34976	6.7	0
23	36204	6.8	0
23	37283	6.9	0
23	38229	7	0
23	39311	7.1	0
23	40586	7.2	0
23	41746	7.3	0
23	42815	7.4	0
23	43915	7.5	0
23	45065	7.6	0
23	46182	7.7	0
23	47268	7.8	0
23	48356	7.9	0
23	49595	8	0
23	50940	8.1	0
23	52349	8.2	0
23	53976	8.3	0
23	55372	8.4	0
23	56804	8.5	0
23	58481	8.6	0
23	59909	8.7	0
23	61467	8.8	0
23	63232	8.9	0
23	64859	9	0
23	66492	9.1	0
23	68188	9.2	0
23	70330	9.3	0
23	72226	9.4	0
23	73965	9.5	0
23	75632	9.6	0
23	77354	9.7	0
23	79173	9.8	0
23	80973	9.9	0
23	82861	10	0
23	84890	10.1	0
23	86772	10.2	0
23	88777	10.3	0
23	90937	10.4	0
23	93270	10.5	0
23	95428	10.6	0
23	97857	10.7	0
23	99990	10.8	0
23	102214	10.9	0
23	104700	11	0
23	107098	11.1	0
23	109529	11.2	0
23	111865	11.3	0
23	114171	11.4	0
23	116448	11.5	0
23	118865	11.6	0
23	121144	11.7	0
24	7315	3.3	8.2411490285043
24	8043	3.4	10.702615822783
24	8628	3.5	6.4995664856539
24	9224	3.6	1.3295249752539
24	9789	3.7	1.3295249752539
24	10495	3.8	1.3295249752539
24	11170	3.9	1.3295249752539
24	11712	4	1.3295249752539
24	12280	4.1	1.3295249752539
24	13102	4.2	1.3295249752539
24	13979	4.3	1.3295249752539
24	14797	4.4	1.3295249752539
24	15467	4.5	1.3295249752539
24	16235	4.6	1.3295249752539
24	17237	4.7	1.3295249752539
24	18181	4.8	1.3295249752539
24	19089	4.9	1.3295249752539
24	19711	5	1.3295249752539
24	20439	5.1	1.3295249752539
24	21192	5.2	1.3295249752539
24	21936	5.3	1.3295249752539
24	22713	5.4	1.3295249752539
24	23590	5.5	1.3295249752539
24	24406	5.6	1.3295249752539
24	25236	5.7	1.3295249752539
24	26041	5.8	1.3295249752539
24	26905	5.9	1.3295249752539
24	27874	6	1.3295249752539
24	28708	6.1	1.3295249752539
24	29541	6.2	1.3295249752539
24	30663	6.3	1.3295249752539
24	31849	6.4	1.3295249752539
24	33047	6.5	1.3295249752539
24	33948	6.6	1.3295249752539
24	34976	6.7	1.3295249752539
24	36204	6.8	1.3295249752539
24	37283	6.9	1.3295249752539
24	38229	7	1.3295249752539
24	39311	7.1	1.3295249752539
24	40586	7.2	1.3295249752539
24	41746	7.3	1.3295249752539
24	42815	7.4	1.3295249752539
24	43915	7.5	1.3295249752539
24	45065	7.6	1.3295249752539
24	46182	7.7	1.3295249752539
24	47268	7.8	1.3295249752539
24	48356	7.9	1.3295249752539
24	49595	8	1.3295249752539
24	50940	8.1	1.3295249752539
24	52349	8.2	1.3295249752539
24	53976	8.3	1.3295249752539
24	55372	8.4	1.3295249752539
24	56804	8.5	1.3295249752539
24	58481	8.6	1.3295249752539
24	59909	8.7	1.3295249752539
24	61467	8.8	1.3295249752539
24	63232	8.9	1.3295249752539
24	64859	9	1.3295249752539
24	66492	9.1	1.3295249752539
24	68188	9.2	1.3295249752539
24	70330	9.3	1.3295249752539
24	72226	9.4	1.3295249752539
24	73965	9.5	1.3295249752539
24	75632	9.6	1.3295249752539
24	77354	9.7	1.3295249752539
24	79173	9.8	1.3295249752539
24	80973	9.9	1.3295249752539
24	82861	10	1.3295249752539
24	84890	10.1	1.3295249752539
24	86772	10.2	1.3295249752539
24	88777	10.3	1.3295249752539
24	90937	10.4	1.3295249752539
24	93270	10.5	1.3295249752539
24	95428	10.6	1.3295249752539
24	97857	10.7	1.3295249752539
24	99990	10.8	1.3295249752539
24	102214	10.9	1.3295249752539
24	104700	11	1.3295249752539
24	107098	11.1	1.3295249752539
24	109529	11.2	1.3295249752539
24	111865	11.3	1.3295249752539
24	114171	11.4	1.3295249752539
24	116448	11.5	1.3295249752539
24	118865	11.6	1.3295249752539
24	121144	11.7	1.3295249752539
25	12280	4.1	26.245
25	13102	4.2	26.39
25	13979	4.3	26.635
25	14797	4.4	26.977504
25	15467	4.5	27.350024
25	16235	4.6	27.722544
25	17237	4.7	28.095064
25	18181	4.8	28.467584
25	19089	4.9	28.840104
25	19711	5	29.212624
25	20439	5.1	29.585144
25	21192	5.2	29.957664
25	21936	5.3	30.330184
25	22713	5.4	30.702704
25	23590	5.5	31.075224
25	24406	5.6	31.447744
25	25236	5.7	31.820264
25	26041	5.8	32.192784
25	26905	5.9	32.565304
25	27874	6	32.937824
25	28708	6.1	33.310344
25	29541	6.2	33.682864
25	30663	6.3	34.032874210526
25	31849	6.4	34.288237368421
25	33047	6.5	34.443600526316
25	33948	6.6	34.498963684211
25	34976	6.7	34.499
25	36204	6.8	34.499
25	37283	6.9	34.499
25	38229	7	34.499
25	39311	7.1	34.499
25	40586	7.2	34.499
25	41746	7.3	34.499
25	42815	7.4	34.499
25	43915	7.5	34.499
25	45065	7.6	34.499
25	46182	7.7	34.499
25	47268	7.8	34.499
25	48356	7.9	34.499
25	49595	8	34.499
25	50940	8.1	34.499
25	52349	8.2	34.499
25	53976	8.3	34.499
25	55372	8.4	34.499
25	56804	8.5	34.499
25	58481	8.6	34.499
25	59909	8.7	34.499
25	61467	8.8	34.499
25	63232	8.9	34.499
25	64859	9	34.499
25	66492	9.1	34.499
25	68188	9.2	34.499
25	70330	9.3	34.499
25	72226	9.4	34.499
25	73965	9.5	34.499
25	75632	9.6	34.499
25	77354	9.7	34.499
25	79173	9.8	34.499
25	80973	9.9	34.499
25	82861	10	34.499
25	84890	10.1	34.499
25	86772	10.2	34.499
25	88777	10.3	34.499
25	90937	10.4	34.499
25	93270	10.5	34.499
25	95428	10.6	34.499
25	97857	10.7	34.499
25	99990	10.8	34.499
25	102214	10.9	34.499
25	104700	11	34.499
25	107098	11.1	34.499
25	109529	11.2	34.499
25	111865	11.3	34.499
25	114171	11.4	34.499
25	116448	11.5	34.5
25	118865	11.6	34.565
25	121144	11.7	34.73
26	12280	4.1	189.1
26	13102	4.2	189.1
26	13979	4.3	189.1
26	14797	4.4	189.1
26	15467	4.5	189.1
26	16235	4.6	189.1
26	17237	4.7	189.1
26	18181	4.8	189.1
26	19089	4.9	189.1
26	19711	5	189.1
26	20439	5.1	189.1
26	21192	5.2	189.1
26	21936	5.3	189.1
26	22713	5.4	189.1
26	23590	5.5	189.1
26	24406	5.6	189.1
26	25236	5.7	189.1
26	26041	5.8	189.1
26	26905	5.9	189.1
26	27874	6	189.1
26	28708	6.1	189.1
26	29541	6.2	189.1
26	30663	6.3	189.1
26	31849	6.4	189.1
26	33047	6.5	189.1
26	33948	6.6	189.1
26	34976	6.7	189.1
26	36204	6.8	189.1
26	37283	6.9	189.1
26	38229	7	189.1
26	39311	7.1	189.1
26	40586	7.2	189.1
26	41746	7.3	189.1
26	42815	7.4	189.1
26	43915	7.5	189.1
26	45065	7.6	189.1
26	46182	7.7	189.1
26	47268	7.8	189.1
26	48356	7.9	189.1
26	49595	8	189.1
26	50940	8.1	189.1
26	52349	8.2	189.1
26	53976	8.3	189.1
26	55372	8.4	189.1
26	56804	8.5	189.1
26	58481	8.6	189.1
26	59909	8.7	189.1
26	61467	8.8	189.1
26	63232	8.9	189.1
26	64859	9	189.1
26	66492	9.1	189.1
26	68188	9.2	189.1
26	70330	9.3	189.1
26	72226	9.4	189.1
26	73965	9.5	189.1
26	75632	9.6	189.1
26	77354	9.7	189.1
26	79173	9.8	189.1
26	80973	9.9	189.1
26	82861	10	189.1
26	84890	10.1	189.1
26	86772	10.2	189.1
26	88777	10.3	189.1
26	90937	10.4	189.1
26	93270	10.5	189.1
26	95428	10.6	189.1
26	97857	10.7	189.1
26	99990	10.8	189.1
26	102214	10.9	189.1
26	104700	11	189.1
26	107098	11.1	189.1
26	109529	11.2	189.1
26	111865	11.3	189.1
26	114171	11.4	189.1
26	116448	11.5	189.1
26	118865	11.6	189.1
26	121144	11.7	189.1
27	13102	4.2	1.9
27	13979	4.3	2.9
27	14797	4.4	3.7252
27	15467	4.5	3.7252
27	16235	4.6	3.7252
27	17237	4.7	3.7252
27	18181	4.8	3.7252
27	19089	4.9	3.7252
27	19711	5	3.7252
27	20439	5.1	3.7252
27	21192	5.2	3.7252
27	21936	5.3	3.7252
27	22713	5.4	3.7252
27	23590	5.5	3.7252
27	24406	5.6	3.7252
27	25236	5.7	3.7252
27	26041	5.8	3.7252
27	26905	5.9	3.7252
27	27874	6	3.7252
27	28708	6.1	3.7252
27	29541	6.2	3.7252
27	30663	6.3	3.1036315789474
27	31849	6.4	2.1036315789474
27	33047	6.5	1.1036315789474
27	33948	6.6	0.10363157894745
27	34976	6.7	0
27	36204	6.8	0
27	37283	6.9	0
27	38229	7	0
27	39311	7.1	0
27	40586	7.2	0
27	41746	7.3	0
27	42815	7.4	0
27	43915	7.5	0
27	45065	7.6	0
27	46182	7.7	0
27	47268	7.8	0
27	48356	7.9	0
27	49595	8	0
27	50940	8.1	0
27	52349	8.2	0
27	53976	8.3	0
27	55372	8.4	0
27	56804	8.5	0
27	58481	8.6	0
27	59909	8.7	0
27	61467	8.8	0
27	63232	8.9	0
27	64859	9	0
27	66492	9.1	0
27	68188	9.2	0
27	70330	9.3	0
27	72226	9.4	0
27	73965	9.5	0
27	75632	9.6	0
27	77354	9.7	0
27	79173	9.8	0
27	80973	9.9	0
27	82861	10	0
27	84890	10.1	0
27	86772	10.2	0
27	88777	10.3	0
27	90937	10.4	0
27	93270	10.5	0
27	95428	10.6	0
27	97857	10.7	0
27	99990	10.8	0
27	102214	10.9	0
27	104700	11	0
27	107098	11.1	0
27	109529	11.2	0
27	111865	11.3	0
27	114171	11.4	0
27	116448	11.5	0.1
27	118865	11.6	1.1
27	121144	11.7	2.1
28	13979	4.3	10
28	14797	4.4	8.252
28	15467	4.5	0
28	16235	4.6	0
28	17237	4.7	0
28	18181	4.8	0
28	19089	4.9	0
28	19711	5	0
28	20439	5.1	0
28	21192	5.2	0
28	21936	5.3	0
28	22713	5.4	0
28	23590	5.5	0
28	24406	5.6	0
28	25236	5.7	0
28	26041	5.8	0
28	26905	5.9	0
28	27874	6	0
28	28708	6.1	0
28	29541	6.2	0
28	30663	6.3	-6.2156842105256
28	31849	6.4	-10
28	33047	6.5	-10
28	33948	6.6	-10
28	34976	6.7	-1.0363157894745
28	36204	6.8	0
28	37283	6.9	0
28	38229	7	0
28	39311	7.1	0
28	40586	7.2	0
28	41746	7.3	0
28	42815	7.4	0
28	43915	7.5	0
28	45065	7.6	0
28	46182	7.7	0
28	47268	7.8	0
28	48356	7.9	0
28	49595	8	0
28	50940	8.1	0
28	52349	8.2	0
28	53976	8.3	0
28	55372	8.4	0
28	56804	8.5	0
28	58481	8.6	0
28	59909	8.7	0
28	61467	8.8	0
28	63232	8.9	0
28	64859	9	0
28	66492	9.1	0
28	68188	9.2	0
28	70330	9.3	0
28	72226	9.4	0
28	73965	9.5	0
28	75632	9.6	0
28	77354	9.7	0
28	79173	9.8	0
28	80973	9.9	0
28	82861	10	0
28	84890	10.1	0
28	86772	10.2	0
28	88777	10.3	0
28	90937	10.4	0
28	93270	10.5	0
28	95428	10.6	0
28	97857	10.7	0
28	99990	10.8	0
28	102214	10.9	0
28	104700	11	0
28	107098	11.1	0
28	109529	11.2	0
28	111865	11.3	0
28	114171	11.4	0
28	116448	11.5	1
28	118865	11.6	10
28	121144	11.7	10
29	13979	4.3	8.2411490285043
29	14797	4.4	8.7029036232757
29	15467	4.5	1.2944791768757
29	16235	4.6	1.2944791768757
29	17237	4.7	1.2944791768757
29	18181	4.8	1.2944791768757
29	19089	4.9	1.2944791768757
29	19711	5	1.2944791768757
29	20439	5.1	1.2944791768757
29	21192	5.2	1.2944791768757
29	21936	5.3	1.2944791768757
29	22713	5.4	1.2944791768757
29	23590	5.5	1.2944791768757
29	24406	5.6	1.2944791768757
29	25236	5.7	1.2944791768757
29	26041	5.8	1.2944791768757
29	26905	5.9	1.2944791768757
29	27874	6	1.2944791768757
29	28708	6.1	1.2944791768757
29	29541	6.2	1.2944791768757
29	30663	6.3	0.973
29	31849	6.4	0.973
29	33047	6.5	0.973
29	33948	6.6	0.973
29	34976	6.7	0.973
29	36204	6.8	0.973
29	37283	6.9	0.973
29	38229	7	0.973
29	39311	7.1	0.973
29	40586	7.2	0.973
29	41746	7.3	0.973
29	42815	7.4	0.973
29	43915	7.5	0.973
29	45065	7.6	0.973
29	46182	7.7	0.973
29	47268	7.8	0.973
29	48356	7.9	0.973
29	49595	8	0.973
29	50940	8.1	0.973
29	52349	8.2	0.973
29	53976	8.3	0.973
29	55372	8.4	0.973
29	56804	8.5	0.973
29	58481	8.6	0.973
29	59909	8.7	0.973
29	61467	8.8	0.973
29	63232	8.9	0.973
29	64859	9	0.973
29	66492	9.1	0.973
29	68188	9.2	0.973
29	70330	9.3	0.973
29	72226	9.4	0.973
29	73965	9.5	0.973
29	75632	9.6	0.973
29	77354	9.7	0.973
29	79173	9.8	0.973
29	80973	9.9	0.973
29	82861	10	0.973
29	84890	10.1	0.973
29	86772	10.2	0.973
29	88777	10.3	0.973
29	90937	10.4	0.973
29	93270	10.5	0.973
29	95428	10.6	0.973
29	97857	10.7	0.973
29	99990	10.8	0.973
29	102214	10.9	0.973
29	104700	11	0.973
29	107098	11.1	0.973
29	109529	11.2	0.973
29	111865	11.3	0.973
29	114171	11.4	0.973
29	116448	11.5	1.1389240923789
29	118865	11.6	3.8141869562893
29	121144	11.7	6.2731595208077
30	20439	5.1	26.245
30	21192	5.2	26.39
30	21936	5.3	26.635
30	22713	5.4	26.98
30	23590	5.5	27.405896
30	24406	5.6	27.839056
30	25236	5.7	28.272216
30	26041	5.8	28.705376
30	26905	5.9	29.138536
30	27874	6	29.571696
30	28708	6.1	30.004856
30	29541	6.2	30.438016
30	30663	6.3	30.871176
30	31849	6.4	31.304336
30	33047	6.5	31.737496
30	33948	6.6	32.170656
30	34976	6.7	32.603816
30	36204	6.8	33.036976
30	37283	6.9	33.470136
30	38229	7	33.903296
30	39311	7.1	34.336456
30	40586	7.2	34.769616
30	41746	7.3	35.202776
30	42815	7.4	35.635936
30	43915	7.5	36.069096
30	45065	7.6	36.502256
30	46182	7.7	36.935416
30	47268	7.8	37.368576
30	48356	7.9	37.801736
30	49595	8	38.234896
30	50940	8.1	38.668056
30	52349	8.2	39.101216
30	53976	8.3	39.534376
30	55372	8.4	39.967536
30	56804	8.5	40.400696
30	58481	8.6	40.833856
30	59909	8.7	41.267016
30	61467	8.8	41.700176
30	63232	8.9	42.096436818182
30	64859	9	42.393597727273
30	66492	9.1	42.590758636364
30	68188	9.2	42.687919545455
30	70330	9.3	42.699
30	72226	9.4	42.699
30	73965	9.5	42.699
30	75632	9.6	42.699
30	77354	9.7	42.699
30	79173	9.8	42.699
30	80973	9.9	42.699
30	82861	10	42.699
30	84890	10.1	42.699
30	86772	10.2	42.699
30	88777	10.3	42.699
30	90937	10.4	42.699
30	93270	10.5	42.699
30	95428	10.6	42.699
30	97857	10.7	42.699
30	99990	10.8	42.699
30	102214	10.9	42.699
30	104700	11	42.699
30	107098	11.1	42.699
30	109529	11.2	42.699
30	111865	11.3	42.699
30	114171	11.4	42.699
30	116448	11.5	42.699
30	118865	11.6	42.699
30	121144	11.7	42.699
31	20439	5.1	164.1
31	21192	5.2	164.1
31	21936	5.3	164.1
31	22713	5.4	164.1
31	23590	5.5	164.1
31	24406	5.6	164.1
31	25236	5.7	164.1
31	26041	5.8	164.1
31	26905	5.9	164.1
31	27874	6	164.1
31	28708	6.1	164.1
31	29541	6.2	164.1
31	30663	6.3	164.1
31	31849	6.4	164.1
31	33047	6.5	164.1
31	33948	6.6	164.1
31	34976	6.7	164.1
31	36204	6.8	164.1
31	37283	6.9	164.1
31	38229	7	164.1
31	39311	7.1	164.1
31	40586	7.2	164.1
31	41746	7.3	164.1
31	42815	7.4	164.1
31	43915	7.5	164.1
31	45065	7.6	164.1
31	46182	7.7	164.1
31	47268	7.8	164.1
31	48356	7.9	164.1
31	49595	8	164.1
31	50940	8.1	164.1
31	52349	8.2	164.1
31	53976	8.3	164.1
31	55372	8.4	164.1
31	56804	8.5	164.1
31	58481	8.6	164.1
31	59909	8.7	164.1
31	61467	8.8	164.1
31	63232	8.9	164.1
31	64859	9	164.1
31	66492	9.1	164.1
31	68188	9.2	164.1
31	70330	9.3	164.1
31	72226	9.4	164.1
31	73965	9.5	164.1
31	75632	9.6	164.1
31	77354	9.7	164.1
31	79173	9.8	164.1
31	80973	9.9	164.1
31	82861	10	164.1
31	84890	10.1	164.1
31	86772	10.2	164.1
31	88777	10.3	164.1
31	90937	10.4	164.1
31	93270	10.5	164.1
31	95428	10.6	164.1
31	97857	10.7	164.1
31	99990	10.8	164.1
31	102214	10.9	164.1
31	104700	11	164.1
31	107098	11.1	164.1
31	109529	11.2	164.1
31	111865	11.3	164.1
31	114171	11.4	164.1
31	116448	11.5	164.1
31	118865	11.6	164.1
31	121144	11.7	164.1
32	21192	5.2	1.9
32	21936	5.3	2.9
32	22713	5.4	3.9
32	23590	5.5	4.3316
32	24406	5.6	4.3316
32	25236	5.7	4.3316
32	26041	5.8	4.3316
32	26905	5.9	4.3316
32	27874	6	4.3316
32	28708	6.1	4.3316
32	29541	6.2	4.3316
32	30663	6.3	4.3316
32	31849	6.4	4.3316
32	33047	6.5	4.3316
32	33948	6.6	4.3316
32	34976	6.7	4.3316
32	36204	6.8	4.3316
32	37283	6.9	4.3316
32	38229	7	4.3316
32	39311	7.1	4.3316
32	40586	7.2	4.3316
32	41746	7.3	4.3316
32	42815	7.4	4.3316
32	43915	7.5	4.3316
32	45065	7.6	4.3316
32	46182	7.7	4.3316
32	47268	7.8	4.3316
32	48356	7.9	4.3316
32	49595	8	4.3316
32	50940	8.1	4.3316
32	52349	8.2	4.3316
32	53976	8.3	4.3316
32	55372	8.4	4.3316
32	56804	8.5	4.3316
32	58481	8.6	4.3316
32	59909	8.7	4.3316
32	61467	8.8	4.3316
32	63232	8.9	3.5216090909091
32	64859	9	2.5216090909091
32	66492	9.1	1.5216090909091
32	68188	9.2	0.52160909090911
32	70330	9.3	0
32	72226	9.4	0
32	73965	9.5	0
32	75632	9.6	0
32	77354	9.7	0
32	79173	9.8	0
32	80973	9.9	0
32	82861	10	0
32	84890	10.1	0
32	86772	10.2	0
32	88777	10.3	0
32	90937	10.4	0
32	93270	10.5	0
32	95428	10.6	0
32	97857	10.7	0
32	99990	10.8	0
32	102214	10.9	0
32	104700	11	0
32	107098	11.1	0
32	109529	11.2	0
32	111865	11.3	0
32	114171	11.4	0
32	116448	11.5	0
32	118865	11.6	0
32	121144	11.7	0
33	21936	5.3	10
33	22713	5.4	10
33	23590	5.5	4.316
33	24406	5.6	0
33	25236	5.7	0
33	26041	5.8	0
33	26905	5.9	0
33	27874	6	0
33	28708	6.1	0
33	29541	6.2	0
33	30663	6.3	0
33	31849	6.4	0
33	33047	6.5	0
33	33948	6.6	0
33	34976	6.7	0
33	36204	6.8	0
33	37283	6.9	0
33	38229	7	0
33	39311	7.1	0
33	40586	7.2	0
33	41746	7.3	0
33	42815	7.4	0
33	43915	7.5	0
33	45065	7.6	0
33	46182	7.7	0
33	47268	7.8	0
33	48356	7.9	0
33	49595	8	0
33	50940	8.1	0
33	52349	8.2	0
33	53976	8.3	0
33	55372	8.4	0
33	56804	8.5	0
33	58481	8.6	0
33	59909	8.7	0
33	61467	8.8	0
33	63232	8.9	-8.099909090909
33	64859	9	-10
33	66492	9.1	-10
33	68188	9.2	-10
33	70330	9.3	-5.2160909090911
33	72226	9.4	0
33	73965	9.5	0
33	75632	9.6	0
33	77354	9.7	0
33	79173	9.8	0
33	80973	9.9	0
33	82861	10	0
33	84890	10.1	0
33	86772	10.2	0
33	88777	10.3	0
33	90937	10.4	0
33	93270	10.5	0
33	95428	10.6	0
33	97857	10.7	0
33	99990	10.8	0
33	102214	10.9	0
33	104700	11	0
33	107098	11.1	0
33	109529	11.2	0
33	111865	11.3	0
33	114171	11.4	0
33	116448	11.5	0
33	118865	11.6	0
33	121144	11.7	0
34	21936	5.3	8.2411490285043
34	22713	5.4	10.702615822783
34	23590	5.5	5.8320040006032
34	24406	5.6	1.3264642710032
34	25236	5.7	1.3264642710032
34	26041	5.8	1.3264642710032
34	26905	5.9	1.3264642710032
34	27874	6	1.3264642710032
34	28708	6.1	1.3264642710032
34	29541	6.2	1.3264642710032
34	30663	6.3	1.3264642710032
34	31849	6.4	1.3264642710032
34	33047	6.5	1.3264642710032
34	33948	6.6	1.3264642710032
34	34976	6.7	1.3264642710032
34	36204	6.8	1.3264642710032
34	37283	6.9	1.3264642710032
34	38229	7	1.3264642710032
34	39311	7.1	1.3264642710032
34	40586	7.2	1.3264642710032
34	41746	7.3	1.3264642710032
34	42815	7.4	1.3264642710032
34	43915	7.5	1.3264642710032
34	45065	7.6	1.3264642710032
34	46182	7.7	1.3264642710032
34	47268	7.8	1.3264642710032
34	48356	7.9	1.3264642710032
34	49595	8	1.3264642710032
34	50940	8.1	1.3264642710032
34	52349	8.2	1.3264642710032
34	53976	8.3	1.3264642710032
34	55372	8.4	1.3264642710032
34	56804	8.5	1.3264642710032
34	58481	8.6	1.3264642710032
34	59909	8.7	1.3264642710032
34	61467	8.8	1.3264642710032
34	63232	8.9	0.973
34	64859	9	0.973
34	66492	9.1	0.973
34	68188	9.2	0.973
34	70330	9.3	0.973
34	72226	9.4	0.973
34	73965	9.5	0.973
34	75632	9.6	0.973
34	77354	9.7	0.973
34	79173	9.8	0.973
34	80973	9.9	0.973
34	82861	10	0.973
34	84890	10.1	0.973
34	86772	10.2	0.973
34	88777	10.3	0.973
34	90937	10.4	0.973
34	93270	10.5	0.973
34	95428	10.6	0.973
34	97857	10.7	0.973
34	99990	10.8	0.973
34	102214	10.9	0.973
34	104700	11	0.973
34	107098	11.1	0.973
34	109529	11.2	0.973
34	111865	11.3	0.973
34	114171	11.4	0.973
34	116448	11.5	0.973
34	118865	11.6	0.973
34	121144	11.7	0.973
35	28708	6.1	26.245
35	29541	6.2	26.39
35	30663	6.3	26.635
35	31849	6.4	26.967643625214
35	33047	6.5	27.294096835955
35	33948	6.6	27.596457565273
35	34976	6.7	27.876112759339
35	36204	6.8	28.13441318865
35	37283	6.9	28.372673542862
35	38229	7	28.592165822501
35	39311	7.1	28.794118555187
35	40586	7.2	28.979712501694
35	41746	7.3	29.150075552394
35	42815	7.4	29.306290290185
35	43915	7.5	29.449381363826
35	45065	7.6	29.580322054673
35	46182	7.7	29.700033531094
35	47268	7.8	29.809383056899
35	48356	7.9	29.9091854207
35	49595	8	30.000203976969
35	50940	8.1	30.083151041436
35	52349	8.2	30.158690402604
35	53976	8.3	30.227445323815
35	55372	8.4	30.28998511595
35	56804	8.5	30.346840466797
35	58481	8.6	30.398506727961
35	59909	8.7	30.445430165794
35	61467	8.8	30.488032037202
35	63232	8.9	30.526697446575
35	64859	9	30.561769103536
35	66492	9.1	30.593580721278
35	68188	9.2	30.62242424757
35	70330	9.3	30.648561650251
35	72226	9.4	30.672246708056
35	73965	9.5	30.693709512531
35	75632	9.6	30.71315279494
35	77354	9.7	30.730754949693
35	79173	9.8	30.746689950766
35	80973	9.9	30.76111569936
35	82861	10	30.774175141373
35	84890	10.1	30.785997683864
35	86772	10.2	30.796700477352
35	88777	10.3	30.806386383783
35	90937	10.4	30.815146287666
35	93270	10.5	30.823068587717
35	95428	10.6	30.830233373877
35	97857	10.7	30.83671307805
35	99990	10.8	30.842573206356
35	102214	10.9	30.847873001353
35	104700	11	30.85266604095
35	107098	11.1	30.857000780046
35	109529	11.2	30.860921040384
35	111865	11.3	30.864466453563
35	114171	11.4	30.867672861691
35	116448	11.5	30.870572679727
35	118865	11.6	30.876961337919
35	121144	11.7	30.902741656486
36	28708	6.1	189.1
36	29541	6.2	189.1
36	30663	6.3	189.1
36	31849	6.4	189.1
36	33047	6.5	189.1
36	33948	6.6	189.1
36	34976	6.7	189.1
36	36204	6.8	189.1
36	37283	6.9	189.1
36	38229	7	189.1
36	39311	7.1	189.1
36	40586	7.2	189.1
36	41746	7.3	189.1
36	42815	7.4	189.1
36	43915	7.5	189.1
36	45065	7.6	189.1
36	46182	7.7	189.1
36	47268	7.8	189.1
36	48356	7.9	189.1
36	49595	8	189.1
36	50940	8.1	189.1
36	52349	8.2	189.1
36	53976	8.3	189.1
36	55372	8.4	189.1
36	56804	8.5	189.1
36	58481	8.6	189.1
36	59909	8.7	189.1
36	61467	8.8	189.1
36	63232	8.9	189.1
36	64859	9	189.1
36	66492	9.1	189.1
36	68188	9.2	189.1
36	70330	9.3	189.1
36	72226	9.4	189.1
36	73965	9.5	189.1
36	75632	9.6	189.1
36	77354	9.7	189.1
36	79173	9.8	189.1
36	80973	9.9	189.1
36	82861	10	189.1
36	84890	10.1	189.1
36	86772	10.2	189.1
36	88777	10.3	189.1
36	90937	10.4	189.1
36	93270	10.5	189.1
36	95428	10.6	189.1
36	97857	10.7	189.1
36	99990	10.8	189.1
36	102214	10.9	189.1
36	104700	11	189.1
36	107098	11.1	189.1
36	109529	11.2	189.1
36	111865	11.3	189.1
36	114171	11.4	189.1
36	116448	11.5	189.1
36	118865	11.6	189.1
36	121144	11.7	189.1
37	29541	6.2	1.9
37	30663	6.3	2.9
37	31849	6.4	3.4025235900648
37	33047	6.5	3.1537716646496
37	33948	6.6	2.9191737771307
37	34976	6.7	2.6983097925284
37	36204	6.8	2.4907209848377
37	37283	6.9	2.2961375678826
37	38229	7	2.1140284812496
37	39311	7.1	1.9439673261124
37	40586	7.2	1.7855926709534
37	41746	7.3	1.6381951718315
37	42815	7.4	1.501499745452
37	43915	7.5	1.3746594965843
37	45065	7.6	1.2573675183122
37	46182	7.7	1.1490604262785
37	47268	7.8	1.0491898560559
37	48356	7.9	0.95723572157409
37	49595	8	0.87270656358028
37	50940	8.1	0.79514052694735
37	52349	8.2	0.72387697867517
37	53976	8.3	0.65862350112814
37	55372	8.4	0.59905277312484
37	56804	8.5	0.54438416654172
37	58481	8.6	0.49465366217419
37	59909	8.7	0.44909692641382
37	61467	8.8	0.40773588621147
37	63232	8.9	0.36990446414245
37	64859	9	0.33552048672914
37	66492	9.1	0.30433262619833
37	68188	9.2	0.2758175766633
37	70330	9.3	0.2499389601479
37	72226	9.4	0.22648840786558
37	73965	9.5	0.20523810640458
37	75632	9.6	0.18584720505959
37	77354	9.7	0.1682450503066
37	79173	9.8	0.15231004923423
37	80973	9.9	0.13788430064039
37	82861	10	0.12482485862671
37	84890	10.1	0.11300231613616
37	86772	10.2	0.10229952264816
37	88777	10.3	0.092539006280142
37	90937	10.4	0.083690618518889
37	93270	10.5	0.075688295234883
37	95428	10.6	0.068451137498403
37	97857	10.7	0.061905981767519
37	99990	10.8	0.055986660246365
37	102214	10.9	0.05063333196642
37	104700	11	0.045791877828401
37	107098	11.1	0.041413353489
37	109529	11.2	0.037453494561454
37	111865	11.3	0.033872269127818
37	114171	11.4	0.030633473039072
37	116448	11.5	0.027704363911802
37	118865	11.6	0.12203866208063
37	121144	11.7	0.39339053285664
38	30663	6.3	10
38	31849	6.4	5.0252359006479
38	33047	6.5	-2.4875192541516
38	33948	6.6	-2.3459788751894
38	34976	6.7	-2.2086398460227
38	36204	6.8	-2.0758880769076
38	37283	6.9	-1.9458341695504
38	38229	7	-1.8210908663307
38	39311	7.1	-1.7006115513712
38	40586	7.2	-1.5837465515905
38	41746	7.3	-1.4739749912189
38	42815	7.4	-1.3669542637946
38	43915	7.5	-1.2684024886775
38	45065	7.6	-1.1729197827212
38	46182	7.7	-1.0830709203371
38	47268	7.8	-0.99870570222562
38	48356	7.9	-0.91954134481806
38	49595	8	-0.84529157993808
38	50940	8.1	-0.77566036632931
38	52349	8.2	-0.71263548272179
38	53976	8.3	-0.65253477547035
38	55372	8.4	-0.59570728003301
38	56804	8.5	-0.54668606583115
38	58481	8.6	-0.49730504367528
38	59909	8.7	-0.45556735760371
38	61467	8.8	-0.41361040202357
38	63232	8.9	-0.37831422069014
38	64859	9	-0.34383977413315
38	66492	9.1	-0.3118786053081
[...]
41	66492	9.1	164.1
41	68188	9.2	164.1
41	70330	9.3	164.1
41	72226	9.4	164.1
41	73965	9.5	164.1
41	75632	9.6	164.1
41	77354	9.7	164.1
41	79173	9.8	164.1
41	80973	9.9	164.1
41	82861	10	164.1
41	84890	10.1	164.1
41	86772	10.2	164.1
41	88777	10.3	164.1
41	90937	10.4	164.1
41	93270	10.5	164.1
41	95428	10.6	164.1
41	97857	10.7	164.1
41	99990	10.8	164.1
41	102214	10.9	164.1
41	104700	11	164.1
41	107098	11.1	164.1
41	109529	11.2	164.1
41	111865	11.3	164.1
41	114171	11.4	164.1
41	116448	11.5	164.1
41	118865	11.6	164.1
41	121144	11.7	164.1
42	40586	7.2	1.9
42	41746	7.3	2.9
42	42815	7.4	3.9
42	43915	7.5	4.0476
42	45065	7.6	4.0476
42	46182	7.7	4.0476
42	47268	7.8	4.0476
42	48356	7.9	4.0476
42	49595	8	4.0476
42	50940	8.1	4.0476
42	52349	8.2	4.0476
42	53976	8.3	4.0476
42	55372	8.4	4.0476
42	56804	8.5	4.0476
42	58481	8.6	4.0476
42	59909	8.7	4.0476
42	61467	8.8	4.0476
42	63232	8.9	4.0476
42	64859	9	4.0476
42	66492	9.1	4.0476
42	68188	9.2	4.0476
42	70330	9.3	3.7829771429999
42	72226	9.4	3.5137894469461
42	73965	9.5	3.2589557983573
42	75632	9.6	3.0183598923348
42	77354	9.7	2.7916143086215
42	79173	9.8	2.5783187810392
42	80973	9.9	2.3781940094352
42	82861	10	2.1908229378027
42	84890	10.1	2.0156648407335
42	86772	10.2	1.8522693372307
42	88777	10.3	1.7003258378075
42	90937	10.4	1.5589553419061
42	93270	10.5	1.4279636223971
42	95428	10.6	1.3067403822169
42	97857	10.7	1.1946527823059
42	99990	10.8	1.0912072354118
42	102214	10.9	0.99593096251002
42	104700	11	0.90824247816141
42	107098	11.1	0.82763503156408
42	109529	11.2	0.75369957485497
42	111865	11.3	0.68602019549234
42	114171	11.4	0.62398081783028
42	116448	11.5	0.56725004161176
42	118865	11.6	0.51548370189954
42	121144	11.7	0.46814651490556
43	41746	7.3	10
43	42815	7.4	10
43	43915	7.5	1.476
43	45065	7.6	0
43	46182	7.7	0
43	47268	7.8	0
43	48356	7.9	0
43	49595	8	0
43	50940	8.1	0
43	52349	8.2	0
43	53976	8.3	0
43	55372	8.4	0
43	56804	8.5	0
43	58481	8.6	0
43	59909	8.7	0
43	61467	8.8	0
43	63232	8.9	0
43	64859	9	0
43	66492	9.1	0
43	68188	9.2	0
43	70330	9.3	-2.6462285700014
43	72226	9.4	-2.6918769605379
43	73965	9.5	-2.5483364858878
43	75632	9.6	-2.4059590602244
43	77354	9.7	-2.2674558371335
43	79173	9.8	-2.1329552758226
43	80973	9.9	-2.0012477160408
43	82861	10	-1.8737107163249
43	84890	10.1	-1.7515809706914
43	86772	10.2	-1.6339550350281
43	88777	10.3	-1.5194349942323
43	90937	10.4	-1.4137049590135
43	93270	10.5	-1.3099171950905
43	95428	10.6	-1.2122324018022
43	97857	10.7	-1.1208759991091
43	99990	10.8	-1.0344554689412
43	102214	10.9	-0.95276272901805
43	104700	11	-0.87688484348618
43	107098	11.1	-0.80607446597329
43	109529	11.2	-0.73935456709111
43	111865	11.3	-0.67679379362628
43	114171	11.4	-0.6203937766206
43	116448	11.5	-0.56730776218517
43	118865	11.6	-0.51766339712223
43	121144	11.7	-0.47337186993978
44	41746	7.3	8.2411490285043
44	42815	7.4	10.702615822783
44	43915	7.5	2.7511781428485
44	45065	7.6	1.3113820612486
44	46182	7.7	1.3113820612486
44	47268	7.8	1.3113820612486
44	48356	7.9	1.3113820612486
44	49595	8	1.3113820612486
44	50940	8.1	1.3113820612486
44	52349	8.2	1.3113820612486
44	53976	8.3	1.3113820612486
44	55372	8.4	1.3113820612486
44	56804	8.5	1.3113820612486
44	58481	8.6	1.3113820612486
44	59909	8.7	1.3113820612486
44	61467	8.8	1.3113820612486
44	63232	8.9	1.3113820612486
44	64859	9	1.3113820612486
44	66492	9.1	1.3113820612486
44	68188	9.2	1.3113820612486
44	70330	9.3	0.973
44	72226	9.4	0.973
44	73965	9.5	0.973
44	75632	9.6	0.973
44	77354	9.7	0.973
44	79173	9.8	0.973
44	80973	9.9	0.973
44	82861	10	0.973
44	84890	10.1	0.973
44	86772	10.2	0.973
44	88777	10.3	0.973
44	90937	10.4	0.973
44	93270	10.5	0.973
44	95428	10.6	0.973
44	97857	10.7	0.973
44	99990	10.8	0.973
44	102214	10.9	0.973
44	104700	11	0.973
44	107098	11.1	0.973
44	109529	11.2	0.973
44	111865	11.3	0.973
44	114171	11.4	0.973
44	116448	11.5	0.973
44	118865	11.6	0.973
44	121144	11.7	0.973
45	50940	8.1	26.2
45	52349	8.2	26.255
45	53976	8.3	26.377066200368
45	55372	8.4	26.523241236792
45	56804	8.5	26.691007374867
45	58481	8.6	26.878228667949
45	59909	8.7	27.083040725905
45	61467	8.8	27.303803290152
45	63232	8.9	27.539070625469
45	64859	9	27.787552048711
45	66492	9.1	28.048099805311
45	68188	9.2	28.319684036088
45	70330	9.3	28.597716705392
45	72226	9.4	28.875525919966
45	73965	9.5	29.151979080091
45	75632	9.6	29.426104451768
45	77354	9.7	29.6970216014
45	79173	9.8	29.963921529763
45	80973	9.9	30.226092664888
45	82861	10	30.482891003782
45	84890	10.1	30.733755005878
45	86772	10.2	30.978183670969
45	88777	10.3	31.215759354747
45	90937	10.4	31.446119398778
45	93270	10.5	31.668968102133
45	95428	10.6	31.884067062773
45	97857	10.7	32.091239700396
45	99990	10.8	32.290360090576
45	102214	10.9	32.481352301607
45	104700	11	32.664186667842
45	107098	11.1	32.838875833525
45	109529	11.2	32.98206069708
45	111865	11.3	33.029
45	114171	11.4	33.029
45	116448	11.5	33.029
45	118865	11.6	33.029
45	121144	11.7	33.029
46	50940	8.1	164.1
46	52349	8.2	164.1
46	53976	8.3	164.1
46	55372	8.4	164.1
46	56804	8.5	164.1
46	58481	8.6	164.1
46	59909	8.7	164.1
46	61467	8.8	164.1
46	63232	8.9	164.1
46	64859	9	164.1
46	66492	9.1	164.1
46	68188	9.2	164.1
46	70330	9.3	164.1
46	72226	9.4	164.1
46	73965	9.5	164.1
46	75632	9.6	164.1
46	77354	9.7	164.1
46	79173	9.8	164.1
46	80973	9.9	164.1
46	82861	10	164.1
46	84890	10.1	164.1
46	86772	10.2	164.1
46	88777	10.3	164.1
46	90937	10.4	164.1
46	93270	10.5	164.1
46	95428	10.6	164.1
46	97857	10.7	164.1
46	99990	10.8	164.1
46	102214	10.9	164.1
46	104700	11	164.1
46	107098	11.1	164.1
46	109529	11.2	164.1
46	111865	11.3	164.1
46	114171	11.4	164.1
46	116448	11.5	164.1
46	118865	11.6	164.1
46	121144	11.7	164.1
47	50940	8.1	636.255
47	52349	8.2	636.11
47	53976	8.3	635.865
47	55372	8.4	635.528704
47	56804	8.5	635.175464
47	58481	8.6	634.822224
47	59909	8.7	634.468984
47	61467	8.8	634.115744
47	63232	8.9	633.762504
47	64859	9	633.409264
47	66492	9.1	633.056024
47	68188	9.2	632.702784
47	70330	9.3	632.349544
47	72226	9.4	631.996304
47	73965	9.5	631.643064
47	75632	9.6	631.289824
47	77354	9.7	630.936584
47	79173	9.8	630.583344
47	80973	9.9	630.230104
47	82861	10	629.876864
47	84890	10.1	629.523624
47	86772	10.2	629.170384
47	88777	10.3	628.817144
47	90937	10.4	628.463904
47	93270	10.5	628.110664
47	95428	10.6	627.757424
47	97857	10.7	627.404184
47	99990	10.8	627.050944
47	102214	10.9	626.697704
47	104700	11	626.344464
47	107098	11.1	625.991224
47	109529	11.2	625.637984
47	111865	11.3	625.284744
47	114171	11.4	624.931504
47	116448	11.5	624.578264
47	118865	11.6	624.225024
47	121144	11.7	623.871784
48	50940	8.1	160.9
48	52349	8.2	160.9
48	53976	8.3	160.9
48	55372	8.4	160.9
48	56804	8.5	160.9
48	58481	8.6	160.9
48	59909	8.7	160.9
48	61467	8.8	160.9
48	63232	8.9	160.9
48	64859	9	160.9
48	66492	9.1	160.9
48	68188	9.2	160.9
48	70330	9.3	160.9
48	72226	9.4	160.9
48	73965	9.5	160.9
48	75632	9.6	160.9
48	77354	9.7	160.9
48	79173	9.8	160.9
48	80973	9.9	160.9
48	82861	10	160.9
48	84890	10.1	160.9
48	86772	10.2	160.9
48	88777	10.3	160.9
48	90937	10.4	160.9
48	93270	10.5	160.9
48	95428	10.6	160.9
48	97857	10.7	160.9
48	99990	10.8	160.9
48	102214	10.9	160.9
48	104700	11	160.9
48	107098	11.1	160.9
48	109529	11.2	160.9
48	111865	11.3	160.9
48	114171	11.4	160.9
48	116448	11.5	160.9
48	118865	11.6	160.9
48	121144	11.7	160.9
49	52349	8.2	1
49	53976	8.3	1.3338051782426
49	55372	8.4	1.5626725993049
49	56804	8.5	1.7684832975283
49	58481	8.6	1.9542197729246
49	59909	8.7	2.1224393950788
49	61467	8.8	2.2751443883037
49	63232	8.9	2.4141604670987
49	64859	9	2.5408838316843
49	66492	9.1	2.6567265557514
49	68188	9.2	2.762765050724
49	70330	9.3	2.7814889436693
49	72226	9.4	2.7737003502737
49	73965	9.5	2.7555761346103
49	75632	9.6	2.7282183313552
49	77354	9.7	2.6923627691289
49	79173	9.8	2.6487663300374
49	80973	9.9	2.5985458114411
49	82861	10	2.5420921675756
49	84890	10.1	2.4804616466584
49	86772	10.2	2.4141436072638
49	88777	10.3	2.3437759543254
49	90937	10.4	2.2702285259045
49	93270	10.5	2.1940311949502
49	95428	10.6	2.1155910893659
49	97857	10.7	2.0355893633772
49	99990	10.8	1.9546141918354
49	102214	10.9	1.8731568176928
49	104700	11	1.791661829938
49	107098	11.1	1.7104378684984
49	109529	11.2	1.0193930292017
49	111865	11.3	0.019393029201663
49	114171	11.4	0
49	116448	11.5	0
49	118865	11.6	0
49	121144	11.7	0
50	52349	8.2	1.9
50	53976	8.3	2.9
50	55372	8.4	3.5324
50	56804	8.5	3.5324
50	58481	8.6	3.5324
50	59909	8.7	3.5324
50	61467	8.8	3.5324
50	63232	8.9	3.5324
50	64859	9	3.5324
50	66492	9.1	3.5324
50	68188	9.2	3.5324
50	70330	9.3	3.5324
50	72226	9.4	3.5324
50	73965	9.5	3.5324
50	75632	9.6	3.5324
50	77354	9.7	3.5324
50	79173	9.8	3.5324
50	80973	9.9	3.5324
50	82861	10	3.5324
50	84890	10.1	3.5324
50	86772	10.2	3.5324
50	88777	10.3	3.5324
50	90937	10.4	3.5324
50	93270	10.5	3.5324
50	95428	10.6	3.5324
50	97857	10.7	3.5324
50	99990	10.8	3.5324
50	102214	10.9	3.5324
50	104700	11	3.5324
50	107098	11.1	3.5324
50	109529	11.2	3.5324
50	111865	11.3	3.5324
50	114171	11.4	3.5324
50	116448	11.5	3.5324
50	118865	11.6	3.5324
50	121144	11.7	3.5324
51	53976	8.3	3.3380517824263
51	55372	8.4	2.2886742106227
51	56804	8.5	2.058106982234
51	58481	8.6	1.8573647539628
51	59909	8.7	1.6821962215423
51	61467	8.8	1.5270499322493
51	63232	8.9	1.3901607879499
51	64859	9	1.2672336458555
51	66492	9.1	1.1584272406708
51	68188	9.2	1.0603849497263
51	70330	9.3	0.18723892945335
51	72226	9.4	-0.07788593395639
51	73965	9.5	-0.18124215663426
51	75632	9.6	-0.27357803255048
51	77354	9.7	-0.35855562226324
51	79173	9.8	-0.43596439091468
51	80973	9.9	-0.50220518596348
51	82861	10	-0.56453643865454
51	84890	10.1	-0.61630520917197
51	86772	10.2	-0.66318039394579
51	88777	10.3	-0.70367652938411
51	90937	10.4	-0.73547428420889
51	93270	10.5	-0.76197330954348
51	95428	10.6	-0.78440105584247
51	97857	10.7	-0.80001725988749
51	99990	10.8	-0.80975171541751
51	102214	10.9	-0.81457374142692
51	104700	11	-0.81494987754796
51	107098	11.1	-0.81223961439547
51	109529	11.2	-6.9104483929675
51	111865	11.3	-10
51	114171	11.4	-0.19393029201663
51	116448	11.5	0
51	118865	11.6	0
51	121144	11.7	0
52	53976	8.3	2.2475688578995
52	55372	8.4	2.0476599235654
52	56804	8.5	2.0729969861992
52	58481	8.6	2.0797184377535
52	59909	8.7	2.0737263630652
52	61467	8.8	2.0581373311099
52	63232	8.9	2.0365720479966
52	64859	9	2.0100819645726
52	66492	9.1	1.9816002333715
52	68188	9.2	1.9512561255629
52	70330	9.3	1.3716804991229
52	72226	9.4	1.1937108281252
52	73965	9.5	0.973
52	75632	9.6	0.973
52	77354	9.7	0.973
52	79173	9.8	0.973
52	80973	9.9	0.973
52	82861	10	0.973
52	84890	10.1	0.973
52	86772	10.2	0.973
52	88777	10.3	0.973
52	90937	10.4	0.973
52	93270	10.5	0.973
52	95428	10.6	0.973
52	97857	10.7	0.973
52	99990	10.8	0.973
52	102214	10.9	0.973
52	104700	11	0.973
52	107098	11.1	0.973
52	109529	11.2	0.973
52	111865	11.3	0.973
52	114171	11.4	0.973
52	116448	11.5	0.973
52	118865	11.6	0.973
52	121144	11.7	0.973
53	53976	8.3	10
53	55372	8.4	6.324
53	56804	8.5	0
53	58481	8.6	0
53	59909	8.7	0
53	61467	8.8	0
53	63232	8.9	0
53	64859	9	0
53	66492	9.1	0
53	68188	9.2	0
53	70330	9.3	0
53	72226	9.4	0
53	73965	9.5	0
53	75632	9.6	0
53	77354	9.7	0
53	79173	9.8	0
53	80973	9.9	0
53	82861	10	0
53	84890	10.1	0
53	86772	10.2	0
53	88777	10.3	0
53	90937	10.4	0
53	93270	10.5	0
53	95428	10.6	0
53	97857	10.7	0
53	99990	10.8	0
53	102214	10.9	0
53	104700	11	0
53	107098	11.1	0
53	109529	11.2	0
53	111865	11.3	0
53	114171	11.4	0
53	116448	11.5	0
53	118865	11.6	0
53	121144	11.7	0
54	53976	8.3	8.2411490285043
54	55372	8.4	6.6681490589988
54	56804	8.5	1.2844747373988
54	58481	8.6	1.2844747373988
54	59909	8.7	1.2844747373988
54	61467	8.8	1.2844747373988
54	63232	8.9	1.2844747373988
54	64859	9	1.2844747373988
54	66492	9.1	1.2844747373988
54	68188	9.2	1.2844747373988
54	70330	9.3	1.2844747373988
54	72226	9.4	1.2844747373988
54	73965	9.5	1.2844747373988
54	75632	9.6	1.2844747373988
54	77354	9.7	1.2844747373988
54	79173	9.8	1.2844747373988
54	80973	9.9	1.2844747373988
54	82861	10	1.2844747373988
54	84890	10.1	1.2844747373988
54	86772	10.2	1.2844747373988
54	88777	10.3	1.2844747373988
54	90937	10.4	1.2844747373988
54	93270	10.5	1.2844747373988
54	95428	10.6	1.2844747373988
54	97857	10.7	1.2844747373988
54	99990	10.8	1.2844747373988
54	102214	10.9	1.2844747373988
54	104700	11	1.2844747373988
54	107098	11.1	1.2844747373988
54	109529	11.2	1.2844747373988
54	111865	11.3	1.2844747373988
54	114171	11.4	1.2844747373988
54	116448	11.5	1.2844747373988
54	118865	11.6	1.2844747373988
54	121144	11.7	1.2844747373988
55	66492	9.1	636.255
55	68188	9.2	636.11
55	70330	9.3	635.865
55	72226	9.4	635.52
55	73965	9.5	635.119532
55	75632	9.6	634.719012
55	77354	9.7	634.318492
55	79173	9.8	633.917972
55	80973	9.9	633.517452
55	82861	10	633.116932
55	84890	10.1	632.716412
55	86772	10.2	632.315892
55	88777	10.3	631.915372
55	90937	10.4	631.514852
55	93270	10.5	631.114332
55	95428	10.6	630.713812
55	97857	10.7	630.313292
55	99990	10.8	629.912772
55	102214	10.9	629.512252
55	104700	11	629.111732
55	107098	11.1	628.711212
55	109529	11.2	628.310692
55	111865	11.3	627.910172
55	114171	11.4	627.509652
55	116448	11.5	627.109132
55	118865	11.6	626.708612
55	121144	11.7	626.308092
56	66492	9.1	185.9
56	68188	9.2	185.9
56	70330	9.3	185.9
56	72226	9.4	185.9
56	73965	9.5	185.9
56	75632	9.6	185.9
56	77354	9.7	185.9
56	79173	9.8	185.9
56	80973	9.9	185.9
56	82861	10	185.9
56	84890	10.1	185.9
56	86772	10.2	185.9
56	88777	10.3	185.9
56	90937	10.4	185.9
56	93270	10.5	185.9
56	95428	10.6	185.9
56	97857	10.7	185.9
56	99990	10.8	185.9
56	102214	10.9	185.9
56	104700	11	185.9
56	107098	11.1	185.9
56	109529	11.2	185.9
56	111865	11.3	185.9
56	114171	11.4	185.9
56	116448	11.5	185.9
56	118865	11.6	185.9
56	121144	11.7	185.9
57	68188	9.2	1.9
57	70330	9.3	2.9
57	72226	9.4	3.9
57	73965	9.5	4.0052
57	75632	9.6	4.0052
57	77354	9.7	4.0052
57	79173	9.8	4.0052
57	80973	9.9	4.0052
57	82861	10	4.0052
57	84890	10.1	4.0052
57	86772	10.2	4.0052
57	88777	10.3	4.0052
57	90937	10.4	4.0052
57	93270	10.5	4.0052
57	95428	10.6	4.0052
57	97857	10.7	4.0052
57	99990	10.8	4.0052
57	102214	10.9	4.0052
57	104700	11	4.0052
57	107098	11.1	4.0052
57	109529	11.2	4.0052
57	111865	11.3	4.0052
57	114171	11.4	4.0052
57	116448	11.5	4.0052
57	118865	11.6	4.0052
57	121144	11.7	4.0052
58	70330	9.3	10
58	72226	9.4	10
58	73965	9.5	1.052
58	75632	9.6	0
58	77354	9.7	0
58	79173	9.8	0
58	80973	9.9	0
58	82861	10	0
58	84890	10.1	0
58	86772	10.2	0
58	88777	10.3	0
58	90937	10.4	0
58	93270	10.5	0
58	95428	10.6	0
58	97857	10.7	0
58	99990	10.8	0
58	102214	10.9	0
58	104700	11	0
58	107098	11.1	0
58	109529	11.2	0
58	111865	11.3	0
58	114171	11.4	0
58	116448	11.5	0
58	118865	11.6	0
58	121144	11.7	0
59	70330	9.3	8.2411490285043
59	72226	9.4	10.702615822783
59	73965	9.5	2.3245925504765
59	75632	9.6	1.3091461840765
59	77354	9.7	1.3091461840765
59	79173	9.8	1.3091461840765
59	80973	9.9	1.3091461840765
59	82861	10	1.3091461840765
59	84890	10.1	1.3091461840765
59	86772	10.2	1.3091461840765
59	88777	10.3	1.3091461840765
59	90937	10.4	1.3091461840765
59	93270	10.5	1.3091461840765
59	95428	10.6	1.3091461840765
59	97857	10.7	1.3091461840765
59	99990	10.8	1.3091461840765
59	102214	10.9	1.3091461840765
59	104700	11	1.3091461840765
59	107098	11.1	1.3091461840765
59	109529	11.2	1.3091461840765
59	111865	11.3	1.3091461840765
59	114171	11.4	1.3091461840765
59	116448	11.5	1.3091461840765
59	118865	11.6	1.3091461840765
59	121144	11.7	1.3091461840765
60	79173	9.8	26.218855964419
60	80973	9.9	26.2746402
60	82861	10	26.347656081775
60	84890	10.1	26.435514780987
60	86772	10.2	26.536113424493
60	88777	10.3	26.647575643198
60	90937	10.4	26.768231117183
60	93270	10.5	26.896582810812
60	95428	10.6	27.031276751979
60	97857	10.7	27.171104484298
60	99990	10.8	27.314957911951
60	102214	10.9	27.461852192795
60	104700	11	27.610895082479
60	107098	11.1	27.761271718631
60	109529	11.2	27.909746045815
60	111865	11.3	28.04661552209
60	114171	11.4	28.171804829628
60	116448	11.5	28.286206478511
60	118865	11.6	28.390661206791
60	121144	11.7	28.485957619796
61	79173	9.8	164.1
61	80973	9.9	164.1
61	82861	10	164.1
61	84890	10.1	164.1
61	86772	10.2	164.1
61	88777	10.3	164.1
61	90937	10.4	164.1
61	93270	10.5	164.1
61	95428	10.6	164.1
61	97857	10.7	164.1
61	99990	10.8	164.1
61	102214	10.9	164.1
61	104700	11	164.1
61	107098	11.1	164.1
61	109529	11.2	164.1
61	111865	11.3	164.1
61	114171	11.4	164.1
61	116448	11.5	164.1
61	118865	11.6	164.1
61	121144	11.7	164.1
62	80973	9.9	0.63950377764642
62	82861	10	0.80076480551549
62	84890	10.1	0.9391544792878
62	86772	10.2	1.0577518407534
62	88777	10.3	1.1586124321636
62	90937	10.4	1.2434962699553
62	93270	10.5	1.3141402504038
62	95428	10.6	1.3719387510291
62	97857	10.7	1.4181516728885
62	99990	10.8	1.4537913062214
62	102214	10.9	1.4800124739542
62	104700	11	1.4976564313387
62	107098	11.1	1.5075860821329
62	109529	11.2	1.4365079240578
62	111865	11.3	1.3146289981339
62	114171	11.4	1.2019776309659
62	116448	11.5	1.0979757077883
62	118865	11.6	1.0021456818432
62	121144	11.7	0.91392812981827
63	82861	10	1.6126102786907
63	84890	10.1	1.3838967377231
63	86772	10.2	1.1859736146564
63	88777	10.3	1.0086059141015
63	90937	10.4	0.84883837791664
63	93270	10.5	0.70643980448566
63	95428	10.6	0.57798500625227
63	97857	10.7	0.46212921859489
63	99990	10.8	0.35639633332872
63	102214	10.9	0.26221167732834
63	104700	11	0.17643957384448
63	107098	11.1	0.099296507941653
63	109529	11.2	-0.71078158075088
63	111865	11.3	-1.2187892592389
63	114171	11.4	-1.1265136716796
63	116448	11.5	-1.0400192317758
63	118865	11.6	-0.95830025945097
63	121144	11.7	-0.8821755202497
64	82861	10	1.4598848230273
64	84890	10.1	1.4686073032825
64	86772	10.2	1.4634615264809
64	88777	10.3	1.4476637283725
64	90937	10.4	1.4245459788791
64	93270	10.5	1.3973387736735
64	95428	10.6	1.3675242405935
64	97857	10.7	1.3366191196938
64	99990	10.8	1.3052830757958
64	102214	10.9	1.2752217317662
64	104700	11	1.2462405187652
64	107098	11.1	1.2191197116875
64	109529	11.2	0.973
64	111865	11.3	0.973
64	114171	11.4	0.973
64	116448	11.5	0.973
64	118865	11.6	0.973
64	121144	11.7	0.973
65	86772	10.2	636.255
65	88777	10.3	636.13716770147
65	90937	10.4	635.99456972918
65	93270	10.5	635.83037185809
65	95428	10.6	635.64671689579
65	97857	10.7	635.44547615294
65	99990	10.8	635.22829074911
65	102214	10.9	634.99661439828
65	104700	11	634.75173481263
65	107098	11.1	634.49480529244
65	109529	11.2	634.22685673596
65	111865	11.3	633.94881612675
65	114171	11.4	633.66151998866
65	116448	11.5	633.36572566007
65	118865	11.6	633.06211785371
65	121144	11.7	632.75131803916
66	86772	10.2	185.9
66	88777	10.3	185.9
66	90937	10.4	185.9
66	93270	10.5	185.9
66	95428	10.6	185.9
66	97857	10.7	185.9
66	99990	10.8	185.9
66	102214	10.9	185.9
66	104700	11	185.9
66	107098	11.1	185.9
66	109529	11.2	185.9
66	111865	11.3	185.9
66	114171	11.4	185.9
66	116448	11.5	185.9
66	118865	11.6	185.9
66	121144	11.7	185.9
67	88777	10.3	1.2980393706907
67	90937	10.4	1.5269699378782
67	93270	10.5	1.7328171190412
67	95428	10.6	1.9185871998218
67	97857	10.7	2.0867329016322
67	99990	10.8	2.2392948339744
67	102214	10.9	2.3781888510511
67	104700	11	2.5048635585699
67	107098	11.1	2.6204970339521
67	109529	11.2	2.7263434412354
67	111865	11.3	2.8233638793297
67	114171	11.4	2.9124187411436
67	116448	11.5	2.9942356719265
67	118865	11.6	3.0694060881492
67	121144	11.7	3.1386569531971
68	90937	10.4	2.2893056718753
68	93270	10.5	2.0584718116297
68	95428	10.6	1.8577008078068
68	97857	10.7	1.6814570181033
68	99990	10.8	1.5256193234227
68	102214	10.9	1.3889401707667
68	104700	11	1.2667470751879
68	107098	11.1	1.1563347538215
68	109529	11.2	1.0584640728336
68	111865	11.3	0.97020438094332
68	114171	11.4	0.89054861813872
68	116448	11.5	0.81816930782872
68	118865	11.6	0.75170416222698
68	121144	11.7	0.69250865047886
69	90937	10.4	2.0264538564511
69	93270	10.5	2.0537079517801
69	95428	10.6	2.0621678503998
69	97857	10.7	2.0571125589697
69	99990	10.8	2.0423919520864
69	102214	10.9	2.0220284229449
69	104700	11	1.9969863680157
69	107098	11.1	1.9683465337003
69	109529	11.2	1.938853360856
69	111865	11.3	1.9084350045135
69	114171	11.4	1.8778469442753
69	116448	11.5	1.8473216148725
69	118865	11.6	1.8167952951597
69	121144	11.7	1.7880899631482

